# generated using pymatgen
data_V8NiH16C20N4O13
_symmetry_space_group_name_H-M   'P 1'
_cell_length_a   17.09100000
_cell_length_b   17.09100000
_cell_length_c   14.61100000
_cell_angle_alpha   90.00000000
_cell_angle_beta   90.00000000
_cell_angle_gamma   90.00000000
_symmetry_Int_Tables_number   1
_chemical_formula_structural   V8NiH16C20N4O13
_chemical_formula_sum   'V32 Ni4 H64 C80 N16 O52'
_cell_volume   4267.90642769
_cell_formula_units_Z   4
loop_
 _symmetry_equiv_pos_site_id
 _symmetry_equiv_pos_as_xyz
  1  'x, y, z'
loop_
 _atom_site_type_symbol
 _atom_site_label
 _atom_site_symmetry_multiplicity
 _atom_site_fract_x
 _atom_site_fract_y
 _atom_site_fract_z
 _atom_site_occupancy
  V  V0  1  0.37871000  0.38682000  0.62810000  1.0
  V  V1  1  0.68544000  0.45266000  0.58869000  1.0
  V  V2  1  0.53321000  0.31133000  0.58704000  1.0
  V  V3  1  0.56627000  0.42894000  0.73017000  1.0
  V  V4  1  0.62129000  0.61318000  0.62810000  1.0
  V  V5  1  0.31456000  0.54734000  0.58869000  1.0
  V  V6  1  0.46679000  0.68867000  0.58704000  1.0
  V  V7  1  0.43373000  0.57106000  0.73017000  1.0
  V  V8  1  0.38682000  0.62129000  0.37190000  1.0
  V  V9  1  0.45266000  0.31456000  0.41131000  1.0
  V  V10  1  0.31133000  0.46679000  0.41296000  1.0
  V  V11  1  0.42894000  0.43373000  0.26983000  1.0
  V  V12  1  0.61318000  0.37871000  0.37190000  1.0
  V  V13  1  0.54734000  0.68544000  0.41131000  1.0
  V  V14  1  0.68867000  0.53321000  0.41296000  1.0
  V  V15  1  0.57106000  0.56627000  0.26983000  1.0
  V  V16  1  0.87871000  0.11318000  0.12810000  1.0
  V  V17  1  0.18544000  0.04734000  0.08869000  1.0
  V  V18  1  0.03321000  0.18867000  0.08704000  1.0
  V  V19  1  0.06627000  0.07106000  0.23017000  1.0
  V  V20  1  0.12129000  0.88682000  0.12810000  1.0
  V  V21  1  0.81456000  0.95266000  0.08869000  1.0
  V  V22  1  0.96679000  0.81133000  0.08704000  1.0
  V  V23  1  0.93373000  0.92894000  0.23017000  1.0
  V  V24  1  0.88682000  0.87871000  0.87190000  1.0
  V  V25  1  0.95266000  0.18544000  0.91131000  1.0
  V  V26  1  0.81133000  0.03321000  0.91296000  1.0
  V  V27  1  0.92894000  0.06627000  0.76983000  1.0
  V  V28  1  0.11318000  0.12129000  0.87190000  1.0
  V  V29  1  0.04734000  0.81456000  0.91131000  1.0
  V  V30  1  0.18867000  0.96679000  0.91296000  1.0
  V  V31  1  0.07106000  0.93373000  0.76983000  1.0
  Ni  Ni32  1  0.24639000  0.25361000  0.75000000  1.0
  Ni  Ni33  1  0.75361000  0.74639000  0.75000000  1.0
  Ni  Ni34  1  0.25361000  0.75361000  0.25000000  1.0
  Ni  Ni35  1  0.74639000  0.24639000  0.25000000  1.0
  H  H36  1  0.06890000  0.26150000  0.74540000  1.0
  H  H37  1  0.96540000  0.26740000  0.64770000  1.0
  H  H38  1  0.21480000  0.31850000  0.55550000  1.0
  H  H39  1  0.77760000  0.31840000  0.44450000  1.0
  H  H40  1  0.87790000  0.33050000  0.54710000  1.0
  H  H41  1  0.92390000  0.24930000  0.25530000  1.0
  H  H42  1  0.02690000  0.25480000  0.35500000  1.0
  H  H43  1  0.11800000  0.31810000  0.44730000  1.0
  H  H44  1  0.93110000  0.73850000  0.74540000  1.0
  H  H45  1  0.03460000  0.73260000  0.64770000  1.0
  H  H46  1  0.78520000  0.68150000  0.55550000  1.0
  H  H47  1  0.22240000  0.68160000  0.44450000  1.0
  H  H48  1  0.12210000  0.66950000  0.54710000  1.0
  H  H49  1  0.07610000  0.75070000  0.25530000  1.0
  H  H50  1  0.97310000  0.74520000  0.35500000  1.0
  H  H51  1  0.88200000  0.68190000  0.44730000  1.0
  H  H52  1  0.26150000  0.93110000  0.25460000  1.0
  H  H53  1  0.26740000  0.03460000  0.35230000  1.0
  H  H54  1  0.31850000  0.78520000  0.44450000  1.0
  H  H55  1  0.31840000  0.22240000  0.55550000  1.0
  H  H56  1  0.33050000  0.12210000  0.45290000  1.0
  H  H57  1  0.24930000  0.07610000  0.74470000  1.0
  H  H58  1  0.25480000  0.97310000  0.64500000  1.0
  H  H59  1  0.31810000  0.88200000  0.55270000  1.0
  H  H60  1  0.73850000  0.06890000  0.25460000  1.0
  H  H61  1  0.73260000  0.96540000  0.35230000  1.0
  H  H62  1  0.68150000  0.21480000  0.44450000  1.0
  H  H63  1  0.68160000  0.77760000  0.55550000  1.0
  H  H64  1  0.66950000  0.87790000  0.45290000  1.0
  H  H65  1  0.75070000  0.92390000  0.74470000  1.0
  H  H66  1  0.74520000  0.02690000  0.64500000  1.0
  H  H67  1  0.68190000  0.11800000  0.55270000  1.0
  H  H68  1  0.56890000  0.23850000  0.24540000  1.0
  H  H69  1  0.46540000  0.23260000  0.14770000  1.0
  H  H70  1  0.71480000  0.18150000  0.05550000  1.0
  H  H71  1  0.27760000  0.18160000  0.94450000  1.0
  H  H72  1  0.37790000  0.16950000  0.04710000  1.0
  H  H73  1  0.42390000  0.25070000  0.75530000  1.0
  H  H74  1  0.52690000  0.24520000  0.85500000  1.0
  H  H75  1  0.61800000  0.18190000  0.94730000  1.0
  H  H76  1  0.43110000  0.76150000  0.24540000  1.0
  H  H77  1  0.53460000  0.76740000  0.14770000  1.0
  H  H78  1  0.28520000  0.81850000  0.05550000  1.0
  H  H79  1  0.72240000  0.81840000  0.94450000  1.0
  H  H80  1  0.62210000  0.83050000  0.04710000  1.0
  H  H81  1  0.57610000  0.74930000  0.75530000  1.0
  H  H82  1  0.47310000  0.75480000  0.85500000  1.0
  H  H83  1  0.38200000  0.81810000  0.94730000  1.0
  H  H84  1  0.76150000  0.56890000  0.75460000  1.0
  H  H85  1  0.76740000  0.46540000  0.85230000  1.0
  H  H86  1  0.81850000  0.71480000  0.94450000  1.0
  H  H87  1  0.81840000  0.27760000  0.05550000  1.0
  H  H88  1  0.83050000  0.37790000  0.95290000  1.0
  H  H89  1  0.74930000  0.42390000  0.24470000  1.0
  H  H90  1  0.75480000  0.52690000  0.14500000  1.0
  H  H91  1  0.81810000  0.61800000  0.05270000  1.0
  H  H92  1  0.23850000  0.43110000  0.75460000  1.0
  H  H93  1  0.23260000  0.53460000  0.85230000  1.0
  H  H94  1  0.18150000  0.28520000  0.94450000  1.0
  H  H95  1  0.18160000  0.72240000  0.05550000  1.0
  H  H96  1  0.16950000  0.62210000  0.95290000  1.0
  H  H97  1  0.25070000  0.57610000  0.24470000  1.0
  H  H98  1  0.24520000  0.47310000  0.14500000  1.0
  H  H99  1  0.18190000  0.38200000  0.05270000  1.0
  C  C100  1  0.07860000  0.27260000  0.68410000  1.0
  C  C101  1  0.01580000  0.27580000  0.62590000  1.0
  C  C102  1  0.02860000  0.29210000  0.53270000  1.0
  C  C103  1  0.16440000  0.30480000  0.57310000  1.0
  C  C104  1  0.82800000  0.30460000  0.42660000  1.0
  C  C105  1  0.88810000  0.31170000  0.48860000  1.0
  C  C106  1  0.96350000  0.29100000  0.46500000  1.0
  C  C107  1  0.91420000  0.26330000  0.31570000  1.0
  C  C108  1  0.97670000  0.26740000  0.37470000  1.0
  C  C109  1  0.10570000  0.30680000  0.50790000  1.0
  C  C110  1  0.92140000  0.72740000  0.68410000  1.0
  C  C111  1  0.98420000  0.72420000  0.62590000  1.0
  C  C112  1  0.97140000  0.70790000  0.53270000  1.0
  C  C113  1  0.83560000  0.69520000  0.57310000  1.0
  C  C114  1  0.17200000  0.69540000  0.42660000  1.0
  C  C115  1  0.11190000  0.68830000  0.48860000  1.0
  C  C116  1  0.03650000  0.70900000  0.46500000  1.0
  C  C117  1  0.08580000  0.73670000  0.31570000  1.0
  C  C118  1  0.02330000  0.73260000  0.37470000  1.0
  C  C119  1  0.89430000  0.69320000  0.50790000  1.0
  C  C120  1  0.27260000  0.92140000  0.31590000  1.0
  C  C121  1  0.27580000  0.98420000  0.37410000  1.0
  C  C122  1  0.29210000  0.97140000  0.46730000  1.0
  C  C123  1  0.30480000  0.83560000  0.42690000  1.0
  C  C124  1  0.30460000  0.17200000  0.57340000  1.0
  C  C125  1  0.31170000  0.11190000  0.51140000  1.0
  C  C126  1  0.29100000  0.03650000  0.53500000  1.0
  C  C127  1  0.26330000  0.08580000  0.68430000  1.0
  C  C128  1  0.26740000  0.02330000  0.62530000  1.0
  C  C129  1  0.30680000  0.89430000  0.49210000  1.0
  C  C130  1  0.72740000  0.07860000  0.31590000  1.0
  C  C131  1  0.72420000  0.01580000  0.37410000  1.0
  C  C132  1  0.70790000  0.02860000  0.46730000  1.0
  C  C133  1  0.69520000  0.16440000  0.42690000  1.0
  C  C134  1  0.69540000  0.82800000  0.57340000  1.0
  C  C135  1  0.68830000  0.88810000  0.51140000  1.0
  C  C136  1  0.70900000  0.96350000  0.53500000  1.0
  C  C137  1  0.73670000  0.91420000  0.68430000  1.0
  C  C138  1  0.73260000  0.97670000  0.62530000  1.0
  C  C139  1  0.69320000  0.10570000  0.49210000  1.0
  C  C140  1  0.57860000  0.22740000  0.18410000  1.0
  C  C141  1  0.51580000  0.22420000  0.12590000  1.0
  C  C142  1  0.52860000  0.20790000  0.03270000  1.0
  C  C143  1  0.66440000  0.19520000  0.07310000  1.0
  C  C144  1  0.32800000  0.19540000  0.92660000  1.0
  C  C145  1  0.38810000  0.18830000  0.98860000  1.0
  C  C146  1  0.46350000  0.20900000  0.96500000  1.0
  C  C147  1  0.41420000  0.23670000  0.81570000  1.0
  C  C148  1  0.47670000  0.23260000  0.87470000  1.0
  C  C149  1  0.60570000  0.19320000  0.00790000  1.0
  C  C150  1  0.42140000  0.77260000  0.18410000  1.0
  C  C151  1  0.48420000  0.77580000  0.12590000  1.0
  C  C152  1  0.47140000  0.79210000  0.03270000  1.0
  C  C153  1  0.33560000  0.80480000  0.07310000  1.0
  C  C154  1  0.67200000  0.80460000  0.92660000  1.0
  C  C155  1  0.61190000  0.81170000  0.98860000  1.0
  C  C156  1  0.53650000  0.79100000  0.96500000  1.0
  C  C157  1  0.58580000  0.76330000  0.81570000  1.0
  C  C158  1  0.52330000  0.76740000  0.87470000  1.0
  C  C159  1  0.39430000  0.80680000  0.00790000  1.0
  C  C160  1  0.77260000  0.57860000  0.81590000  1.0
  C  C161  1  0.77580000  0.51580000  0.87410000  1.0
  C  C162  1  0.79210000  0.52860000  0.96730000  1.0
  C  C163  1  0.80480000  0.66440000  0.92690000  1.0
  C  C164  1  0.80460000  0.32800000  0.07340000  1.0
  C  C165  1  0.81170000  0.38810000  0.01140000  1.0
  C  C166  1  0.79100000  0.46350000  0.03500000  1.0
  C  C167  1  0.76330000  0.41420000  0.18430000  1.0
  C  C168  1  0.76740000  0.47670000  0.12530000  1.0
  C  C169  1  0.80680000  0.60570000  0.99210000  1.0
  C  C170  1  0.22740000  0.42140000  0.81590000  1.0
  C  C171  1  0.22420000  0.48420000  0.87410000  1.0
  C  C172  1  0.20790000  0.47140000  0.96730000  1.0
  C  C173  1  0.19520000  0.33560000  0.92690000  1.0
  C  C174  1  0.19540000  0.67200000  0.07340000  1.0
  C  C175  1  0.18830000  0.61190000  0.01140000  1.0
  C  C176  1  0.20900000  0.53650000  0.03500000  1.0
  C  C177  1  0.23670000  0.58580000  0.18430000  1.0
  C  C178  1  0.23260000  0.52330000  0.12530000  1.0
  C  C179  1  0.19320000  0.39430000  0.99210000  1.0
  N  N180  1  0.15240000  0.28430000  0.65910000  1.0
  N  N181  1  0.27830000  0.16020000  0.65980000  1.0
  N  N182  1  0.84760000  0.71570000  0.65910000  1.0
  N  N183  1  0.72170000  0.83980000  0.65980000  1.0
  N  N184  1  0.28430000  0.84760000  0.34090000  1.0
  N  N185  1  0.16020000  0.72170000  0.34020000  1.0
  N  N186  1  0.71570000  0.15240000  0.34090000  1.0
  N  N187  1  0.83980000  0.27830000  0.34020000  1.0
  N  N188  1  0.65240000  0.21570000  0.15910000  1.0
  N  N189  1  0.77830000  0.33980000  0.15980000  1.0
  N  N190  1  0.34760000  0.78430000  0.15910000  1.0
  N  N191  1  0.22170000  0.66020000  0.15980000  1.0
  N  N192  1  0.78430000  0.65240000  0.84090000  1.0
  N  N193  1  0.66020000  0.77830000  0.84020000  1.0
  N  N194  1  0.21570000  0.34760000  0.84090000  1.0
  N  N195  1  0.33980000  0.22170000  0.84020000  1.0
  O  O196  1  0.48090000  0.37070000  0.68200000  1.0
  O  O197  1  0.62040000  0.36920000  0.62340000  1.0
  O  O198  1  0.36890000  0.49080000  0.68220000  1.0
  O  O199  1  0.31350000  0.44050000  0.53890000  1.0
  O  O200  1  0.42710000  0.32030000  0.53700000  1.0
  O  O201  1  0.31880000  0.32830000  0.68180000  1.0
  O  O202  1  0.51910000  0.62930000  0.68200000  1.0
  O  O203  1  0.37960000  0.63080000  0.62340000  1.0
  O  O204  1  0.63110000  0.50920000  0.68220000  1.0
  O  O205  1  0.68650000  0.55950000  0.53890000  1.0
  O  O206  1  0.57290000  0.67970000  0.53700000  1.0
  O  O207  1  0.68120000  0.67170000  0.68180000  1.0
  O  O208  1  0.37070000  0.51910000  0.31800000  1.0
  O  O209  1  0.36920000  0.37960000  0.37660000  1.0
  O  O210  1  0.49080000  0.63110000  0.31780000  1.0
  O  O211  1  0.44050000  0.68650000  0.46110000  1.0
  O  O212  1  0.32030000  0.57290000  0.46300000  1.0
  O  O213  1  0.32830000  0.68120000  0.31820000  1.0
  O  O214  1  0.62930000  0.48090000  0.31800000  1.0
  O  O215  1  0.63080000  0.62040000  0.37660000  1.0
  O  O216  1  0.50920000  0.36890000  0.31780000  1.0
  O  O217  1  0.55950000  0.31350000  0.46110000  1.0
  O  O218  1  0.67970000  0.42710000  0.46300000  1.0
  O  O219  1  0.67170000  0.31880000  0.31820000  1.0
  O  O220  1  0.98090000  0.12930000  0.18200000  1.0
  O  O221  1  0.12040000  0.13080000  0.12340000  1.0
  O  O222  1  0.86890000  0.00920000  0.18220000  1.0
  O  O223  1  0.81350000  0.05950000  0.03890000  1.0
  O  O224  1  0.92710000  0.17970000  0.03700000  1.0
  O  O225  1  0.81880000  0.17170000  0.18180000  1.0
  O  O226  1  0.01910000  0.87070000  0.18200000  1.0
  O  O227  1  0.87960000  0.86920000  0.12340000  1.0
  O  O228  1  0.13110000  0.99080000  0.18220000  1.0
  O  O229  1  0.18650000  0.94050000  0.03890000  1.0
  O  O230  1  0.07290000  0.82030000  0.03700000  1.0
  O  O231  1  0.18120000  0.82830000  0.18180000  1.0
  O  O232  1  0.87070000  0.98090000  0.81800000  1.0
  O  O233  1  0.86920000  0.12040000  0.87660000  1.0
  O  O234  1  0.99080000  0.86890000  0.81780000  1.0
  O  O235  1  0.94050000  0.81350000  0.96110000  1.0
  O  O236  1  0.82030000  0.92710000  0.96300000  1.0
  O  O237  1  0.82830000  0.81880000  0.81820000  1.0
  O  O238  1  0.12930000  0.01910000  0.81800000  1.0
  O  O239  1  0.13080000  0.87960000  0.87660000  1.0
  O  O240  1  0.00920000  0.13110000  0.81780000  1.0
  O  O241  1  0.05950000  0.18650000  0.96110000  1.0
  O  O242  1  0.17970000  0.07290000  0.96300000  1.0
  O  O243  1  0.17170000  0.18120000  0.81820000  1.0
  O  O244  1  0.50000000  0.50000000  0.78240000  1.0
  O  O245  1  0.50000000  0.50000000  0.21760000  1.0
  O  O246  1  0.00000000  0.00000000  0.28240000  1.0
  O  O247  1  0.00000000  0.00000000  0.71760000  1.0
