# generated using pymatgen
data_SrGd2H2C8O17
_symmetry_space_group_name_H-M   'P 1'
_cell_length_a   11.42500000
_cell_length_b   15.82400000
_cell_length_c   12.64900000
_cell_angle_alpha   90.00000000
_cell_angle_beta   90.00000000
_cell_angle_gamma   90.00000000
_symmetry_Int_Tables_number   1
_chemical_formula_structural   SrGd2H2C8O17
_chemical_formula_sum   'Sr4 Gd8 H8 C32 O68'
_cell_volume   2286.80259080
_cell_formula_units_Z   4
loop_
 _symmetry_equiv_pos_site_id
 _symmetry_equiv_pos_as_xyz
  1  'x, y, z'
loop_
 _atom_site_type_symbol
 _atom_site_label
 _atom_site_symmetry_multiplicity
 _atom_site_fract_x
 _atom_site_fract_y
 _atom_site_fract_z
 _atom_site_occupancy
  Sr  Sr0  1  0.25000000  0.67245000  0.12874000  1.0
  Sr  Sr1  1  0.75000000  0.82755000  0.62874000  1.0
  Sr  Sr2  1  0.75000000  0.32755000  0.87126000  1.0
  Sr  Sr3  1  0.25000000  0.17245000  0.37126000  1.0
  Gd  Gd4  1  0.25000000  0.42294000  0.52233000  1.0
  Gd  Gd5  1  0.25000000  0.42622000  0.02228000  1.0
  Gd  Gd6  1  0.75000000  0.07706000  0.02233000  1.0
  Gd  Gd7  1  0.75000000  0.07378000  0.52228000  1.0
  Gd  Gd8  1  0.75000000  0.57706000  0.47767000  1.0
  Gd  Gd9  1  0.75000000  0.57378000  0.97772000  1.0
  Gd  Gd10  1  0.25000000  0.92294000  0.97767000  1.0
  Gd  Gd11  1  0.25000000  0.92622000  0.47772000  1.0
  H  H12  1  0.19390000  0.25300000  0.59560000  1.0
  H  H13  1  0.80610000  0.24700000  0.09560000  1.0
  H  H14  1  0.69390000  0.74700000  0.40440000  1.0
  H  H15  1  0.30610000  0.75300000  0.90440000  1.0
  H  H16  1  0.80610000  0.74700000  0.40440000  1.0
  H  H17  1  0.19390000  0.75300000  0.90440000  1.0
  H  H18  1  0.30610000  0.25300000  0.59560000  1.0
  H  H19  1  0.69390000  0.24700000  0.09560000  1.0
  C  C20  1  0.02550000  0.54220000  0.97970000  1.0
  C  C21  1  0.31700000  0.40760000  0.77300000  1.0
  C  C22  1  0.97710000  0.45780000  0.47750000  1.0
  C  C23  1  0.97450000  0.95780000  0.47970000  1.0
  C  C24  1  0.68300000  0.09240000  0.27300000  1.0
  C  C25  1  0.02290000  0.04220000  0.97750000  1.0
  C  C26  1  0.52550000  0.45780000  0.02030000  1.0
  C  C27  1  0.81700000  0.59240000  0.22700000  1.0
  C  C28  1  0.47710000  0.54220000  0.52250000  1.0
  C  C29  1  0.47450000  0.04220000  0.52030000  1.0
  C  C30  1  0.18300000  0.90760000  0.72700000  1.0
  C  C31  1  0.52290000  0.95780000  0.02250000  1.0
  C  C32  1  0.97450000  0.45780000  0.02030000  1.0
  C  C33  1  0.68300000  0.59240000  0.22700000  1.0
  C  C34  1  0.02290000  0.54220000  0.52250000  1.0
  C  C35  1  0.02550000  0.04220000  0.52030000  1.0
  C  C36  1  0.31700000  0.90760000  0.72700000  1.0
  C  C37  1  0.97710000  0.95780000  0.02250000  1.0
  C  C38  1  0.47450000  0.54220000  0.97970000  1.0
  C  C39  1  0.18300000  0.40760000  0.77300000  1.0
  C  C40  1  0.52290000  0.45780000  0.47750000  1.0
  C  C41  1  0.52550000  0.95780000  0.47970000  1.0
  C  C42  1  0.81700000  0.09240000  0.27300000  1.0
  C  C43  1  0.47710000  0.04220000  0.97750000  1.0
  C  C44  1  0.25000000  0.47330000  0.27180000  1.0
  C  C45  1  0.25000000  0.37670000  0.26900000  1.0
  C  C46  1  0.75000000  0.02670000  0.77180000  1.0
  C  C47  1  0.75000000  0.12330000  0.76900000  1.0
  C  C48  1  0.75000000  0.52670000  0.72820000  1.0
  C  C49  1  0.75000000  0.62330000  0.73100000  1.0
  C  C50  1  0.25000000  0.97330000  0.22820000  1.0
  C  C51  1  0.25000000  0.87670000  0.23100000  1.0
  O  O52  1  0.13220000  0.55490000  0.99530000  1.0
  O  O53  1  0.36540000  0.40630000  0.86110000  1.0
  O  O54  1  0.95450000  0.59180000  0.93480000  1.0
  O  O55  1  0.05090000  0.39930000  0.46850000  1.0
  O  O56  1  0.36700000  0.40790000  0.68460000  1.0
  O  O57  1  0.87210000  0.45340000  0.45360000  1.0
  O  O58  1  0.86780000  0.94510000  0.49530000  1.0
  O  O59  1  0.63460000  0.09370000  0.36110000  1.0
  O  O60  1  0.04550000  0.90820000  0.43480000  1.0
  O  O61  1  0.94910000  0.10070000  0.96850000  1.0
  O  O62  1  0.63300000  0.09210000  0.18460000  1.0
  O  O63  1  0.12790000  0.04660000  0.95360000  1.0
  O  O64  1  0.63220000  0.44510000  0.00470000  1.0
  O  O65  1  0.86540000  0.59370000  0.13890000  1.0
  O  O66  1  0.45450000  0.40820000  0.06520000  1.0
  O  O67  1  0.55090000  0.60070000  0.53150000  1.0
  O  O68  1  0.86700000  0.59210000  0.31540000  1.0
  O  O69  1  0.37210000  0.54660000  0.54640000  1.0
  O  O70  1  0.36780000  0.05490000  0.50470000  1.0
  O  O71  1  0.13460000  0.90630000  0.63890000  1.0
  O  O72  1  0.54550000  0.09180000  0.56520000  1.0
  O  O73  1  0.44910000  0.89930000  0.03150000  1.0
  O  O74  1  0.13300000  0.90790000  0.81540000  1.0
  O  O75  1  0.62790000  0.95340000  0.04640000  1.0
  O  O76  1  0.86780000  0.44510000  0.00470000  1.0
  O  O77  1  0.63460000  0.59370000  0.13890000  1.0
  O  O78  1  0.04550000  0.40820000  0.06520000  1.0
  O  O79  1  0.94910000  0.60070000  0.53150000  1.0
  O  O80  1  0.63300000  0.59210000  0.31540000  1.0
  O  O81  1  0.12790000  0.54660000  0.54640000  1.0
  O  O82  1  0.13220000  0.05490000  0.50470000  1.0
  O  O83  1  0.36540000  0.90630000  0.63890000  1.0
  O  O84  1  0.95450000  0.09180000  0.56520000  1.0
  O  O85  1  0.05090000  0.89930000  0.03150000  1.0
  O  O86  1  0.36700000  0.90790000  0.81540000  1.0
  O  O87  1  0.87210000  0.95340000  0.04640000  1.0
  O  O88  1  0.36780000  0.55490000  0.99530000  1.0
  O  O89  1  0.13460000  0.40630000  0.86110000  1.0
  O  O90  1  0.54550000  0.59180000  0.93480000  1.0
  O  O91  1  0.44910000  0.39930000  0.46850000  1.0
  O  O92  1  0.13300000  0.40790000  0.68460000  1.0
  O  O93  1  0.62790000  0.45340000  0.45360000  1.0
  O  O94  1  0.63220000  0.94510000  0.49530000  1.0
  O  O95  1  0.86540000  0.09370000  0.36110000  1.0
  O  O96  1  0.45450000  0.90820000  0.43480000  1.0
  O  O97  1  0.55090000  0.10070000  0.96850000  1.0
  O  O98  1  0.86700000  0.09210000  0.18460000  1.0
  O  O99  1  0.37210000  0.04660000  0.95360000  1.0
  O  O100  1  0.25000000  0.50840000  0.36050000  1.0
  O  O101  1  0.25000000  0.33820000  0.35680000  1.0
  O  O102  1  0.25000000  0.34220000  0.18150000  1.0
  O  O103  1  0.25000000  0.51010000  0.18450000  1.0
  O  O104  1  0.25000000  0.26720000  0.55670000  1.0
  O  O105  1  0.75000000  0.99160000  0.86050000  1.0
  O  O106  1  0.75000000  0.16180000  0.85680000  1.0
  O  O107  1  0.75000000  0.15780000  0.68150000  1.0
  O  O108  1  0.75000000  0.98990000  0.68450000  1.0
  O  O109  1  0.75000000  0.23280000  0.05670000  1.0
  O  O110  1  0.75000000  0.49160000  0.63950000  1.0
  O  O111  1  0.75000000  0.66180000  0.64320000  1.0
  O  O112  1  0.75000000  0.65780000  0.81850000  1.0
  O  O113  1  0.75000000  0.48990000  0.81550000  1.0
  O  O114  1  0.75000000  0.73280000  0.44330000  1.0
  O  O115  1  0.25000000  0.00840000  0.13950000  1.0
  O  O116  1  0.25000000  0.83820000  0.14320000  1.0
  O  O117  1  0.25000000  0.84220000  0.31850000  1.0
  O  O118  1  0.25000000  0.01010000  0.31550000  1.0
  O  O119  1  0.25000000  0.76720000  0.94330000  1.0
