# generated using pymatgen
data_ZnHC5O4
_symmetry_space_group_name_H-M   'P 1'
_cell_length_a   11.81050000
_cell_length_b   18.77750000
_cell_length_c   18.77750000
_cell_angle_alpha   90.00000000
_cell_angle_beta   90.00000000
_cell_angle_gamma   90.00000000
_symmetry_Int_Tables_number   1
_chemical_formula_structural   ZnHC5O4
_chemical_formula_sum   'Zn16 H16 C80 O64'
_cell_volume   4164.31741607
_cell_formula_units_Z   16
loop_
 _symmetry_equiv_pos_site_id
 _symmetry_equiv_pos_as_xyz
  1  'x, y, z'
loop_
 _atom_site_type_symbol
 _atom_site_label
 _atom_site_symmetry_multiplicity
 _atom_site_fract_x
 _atom_site_fract_y
 _atom_site_fract_z
 _atom_site_occupancy
  Zn  Zn0  1  0.50004000  0.14728000  0.81009000  1.0
  Zn  Zn1  1  0.32154000  0.27739000  0.77320000  1.0
  Zn  Zn2  1  0.50004000  0.85272000  0.18991000  1.0
  Zn  Zn3  1  0.32154000  0.72261000  0.22680000  1.0
  Zn  Zn4  1  0.00004000  0.18991000  0.14728000  1.0
  Zn  Zn5  1  0.82154000  0.22680000  0.27739000  1.0
  Zn  Zn6  1  0.00004000  0.81009000  0.85272000  1.0
  Zn  Zn7  1  0.82154000  0.77320000  0.72261000  1.0
  Zn  Zn8  1  0.50004000  0.64728000  0.68991000  1.0
  Zn  Zn9  1  0.32154000  0.77739000  0.72680000  1.0
  Zn  Zn10  1  0.50004000  0.35272000  0.31009000  1.0
  Zn  Zn11  1  0.32154000  0.22261000  0.27320000  1.0
  Zn  Zn12  1  0.00004000  0.68991000  0.35272000  1.0
  Zn  Zn13  1  0.82154000  0.72680000  0.22261000  1.0
  Zn  Zn14  1  0.00004000  0.31009000  0.64728000  1.0
  Zn  Zn15  1  0.82154000  0.27320000  0.77739000  1.0
  H  H16  1  0.76470000  0.23090000  0.00110000  1.0
  H  H17  1  0.38780000  0.27350000  0.04750000  1.0
  H  H18  1  0.76470000  0.76910000  0.99890000  1.0
  H  H19  1  0.38780000  0.72650000  0.95250000  1.0
  H  H20  1  0.26470000  0.99890000  0.23090000  1.0
  H  H21  1  0.88780000  0.95250000  0.27350000  1.0
  H  H22  1  0.26470000  0.00110000  0.76910000  1.0
  H  H23  1  0.88780000  0.04750000  0.72650000  1.0
  H  H24  1  0.76470000  0.73090000  0.49890000  1.0
  H  H25  1  0.38780000  0.77350000  0.45250000  1.0
  H  H26  1  0.76470000  0.26910000  0.50110000  1.0
  H  H27  1  0.38780000  0.22650000  0.54750000  1.0
  H  H28  1  0.26470000  0.49890000  0.26910000  1.0
  H  H29  1  0.88780000  0.45250000  0.22650000  1.0
  H  H30  1  0.26470000  0.50110000  0.73090000  1.0
  H  H31  1  0.88780000  0.54750000  0.77350000  1.0
  C  C32  1  0.50040000  0.26040000  0.96760000  1.0
  C  C33  1  0.61520000  0.24700000  0.95380000  1.0
  C  C34  1  0.68840000  0.23880000  0.01040000  1.0
  C  C35  1  0.65210000  0.24180000  0.08100000  1.0
  C  C36  1  0.53810000  0.25640000  0.09560000  1.0
  C  C37  1  0.46390000  0.26480000  0.03840000  1.0
  C  C38  1  0.41030000  0.26900000  0.91090000  1.0
  C  C39  1  0.67040000  0.24070000  0.88100000  1.0
  C  C40  1  0.73990000  0.22670000  0.13690000  1.0
  C  C41  1  0.48860000  0.26420000  0.16930000  1.0
  C  C42  1  0.50040000  0.73960000  0.03240000  1.0
  C  C43  1  0.61520000  0.75300000  0.04620000  1.0
  C  C44  1  0.68840000  0.76120000  0.98960000  1.0
  C  C45  1  0.65210000  0.75820000  0.91900000  1.0
  C  C46  1  0.53810000  0.74360000  0.90440000  1.0
  C  C47  1  0.46390000  0.73520000  0.96160000  1.0
  C  C48  1  0.41030000  0.73100000  0.08910000  1.0
  C  C49  1  0.67040000  0.75930000  0.11900000  1.0
  C  C50  1  0.73990000  0.77330000  0.86310000  1.0
  C  C51  1  0.48860000  0.73580000  0.83070000  1.0
  C  C52  1  0.00040000  0.03240000  0.26040000  1.0
  C  C53  1  0.11520000  0.04620000  0.24700000  1.0
  C  C54  1  0.18840000  0.98960000  0.23880000  1.0
  C  C55  1  0.15210000  0.91900000  0.24180000  1.0
  C  C56  1  0.03810000  0.90440000  0.25640000  1.0
  C  C57  1  0.96390000  0.96160000  0.26480000  1.0
  C  C58  1  0.91030000  0.08910000  0.26900000  1.0
  C  C59  1  0.17040000  0.11900000  0.24070000  1.0
  C  C60  1  0.23990000  0.86310000  0.22670000  1.0
  C  C61  1  0.98860000  0.83070000  0.26420000  1.0
  C  C62  1  0.00040000  0.96760000  0.73960000  1.0
  C  C63  1  0.11520000  0.95380000  0.75300000  1.0
  C  C64  1  0.18840000  0.01040000  0.76120000  1.0
  C  C65  1  0.15210000  0.08100000  0.75820000  1.0
  C  C66  1  0.03810000  0.09560000  0.74360000  1.0
  C  C67  1  0.96390000  0.03840000  0.73520000  1.0
  C  C68  1  0.91030000  0.91090000  0.73100000  1.0
  C  C69  1  0.17040000  0.88100000  0.75930000  1.0
  C  C70  1  0.23990000  0.13690000  0.77330000  1.0
  C  C71  1  0.98860000  0.16930000  0.73580000  1.0
  C  C72  1  0.50040000  0.76040000  0.53240000  1.0
  C  C73  1  0.61520000  0.74700000  0.54620000  1.0
  C  C74  1  0.68840000  0.73880000  0.48960000  1.0
  C  C75  1  0.65210000  0.74180000  0.41900000  1.0
  C  C76  1  0.53810000  0.75640000  0.40440000  1.0
  C  C77  1  0.46390000  0.76480000  0.46160000  1.0
  C  C78  1  0.41030000  0.76900000  0.58910000  1.0
  C  C79  1  0.67040000  0.74070000  0.61900000  1.0
  C  C80  1  0.73990000  0.72670000  0.36310000  1.0
  C  C81  1  0.48860000  0.76420000  0.33070000  1.0
  C  C82  1  0.50040000  0.23960000  0.46760000  1.0
  C  C83  1  0.61520000  0.25300000  0.45380000  1.0
  C  C84  1  0.68840000  0.26120000  0.51040000  1.0
  C  C85  1  0.65210000  0.25820000  0.58100000  1.0
  C  C86  1  0.53810000  0.24360000  0.59560000  1.0
  C  C87  1  0.46390000  0.23520000  0.53840000  1.0
  C  C88  1  0.41030000  0.23100000  0.41090000  1.0
  C  C89  1  0.67040000  0.25930000  0.38100000  1.0
  C  C90  1  0.73990000  0.27330000  0.63690000  1.0
  C  C91  1  0.48860000  0.23580000  0.66930000  1.0
  C  C92  1  0.00040000  0.53240000  0.23960000  1.0
  C  C93  1  0.11520000  0.54620000  0.25300000  1.0
  C  C94  1  0.18840000  0.48960000  0.26120000  1.0
  C  C95  1  0.15210000  0.41900000  0.25820000  1.0
  C  C96  1  0.03810000  0.40440000  0.24360000  1.0
  C  C97  1  0.96390000  0.46160000  0.23520000  1.0
  C  C98  1  0.91030000  0.58910000  0.23100000  1.0
  C  C99  1  0.17040000  0.61900000  0.25930000  1.0
  C  C100  1  0.23990000  0.36310000  0.27330000  1.0
  C  C101  1  0.98860000  0.33070000  0.23580000  1.0
  C  C102  1  0.00040000  0.46760000  0.76040000  1.0
  C  C103  1  0.11520000  0.45380000  0.74700000  1.0
  C  C104  1  0.18840000  0.51040000  0.73880000  1.0
  C  C105  1  0.15210000  0.58100000  0.74180000  1.0
  C  C106  1  0.03810000  0.59560000  0.75640000  1.0
  C  C107  1  0.96390000  0.53840000  0.76480000  1.0
  C  C108  1  0.91030000  0.41090000  0.76900000  1.0
  C  C109  1  0.17040000  0.38100000  0.74070000  1.0
  C  C110  1  0.23990000  0.63690000  0.72670000  1.0
  C  C111  1  0.98860000  0.66930000  0.76420000  1.0
  O  O112  1  0.43910000  0.25580000  0.84620000  1.0
  O  O113  1  0.31600000  0.28520000  0.92750000  1.0
  O  O114  1  0.65030000  0.19150000  0.83940000  1.0
  O  O115  1  0.74770000  0.28640000  0.86980000  1.0
  O  O116  1  0.83750000  0.21280000  0.11600000  1.0
  O  O117  1  0.70940000  0.22650000  0.20030000  1.0
  O  O118  1  0.41590000  0.21760000  0.18640000  1.0
  O  O119  1  0.51540000  0.31610000  0.20550000  1.0
  O  O120  1  0.43910000  0.74420000  0.15380000  1.0
  O  O121  1  0.31600000  0.71480000  0.07250000  1.0
  O  O122  1  0.65030000  0.80850000  0.16060000  1.0
  O  O123  1  0.74770000  0.71360000  0.13020000  1.0
  O  O124  1  0.83750000  0.78720000  0.88400000  1.0
  O  O125  1  0.70940000  0.77350000  0.79970000  1.0
  O  O126  1  0.41590000  0.78240000  0.81360000  1.0
  O  O127  1  0.51540000  0.68390000  0.79450000  1.0
  O  O128  1  0.93910000  0.15380000  0.25580000  1.0
  O  O129  1  0.81600000  0.07250000  0.28520000  1.0
  O  O130  1  0.15030000  0.16060000  0.19150000  1.0
  O  O131  1  0.24770000  0.13020000  0.28640000  1.0
  O  O132  1  0.33750000  0.88400000  0.21280000  1.0
  O  O133  1  0.20940000  0.79970000  0.22650000  1.0
  O  O134  1  0.91590000  0.81360000  0.21760000  1.0
  O  O135  1  0.01540000  0.79450000  0.31610000  1.0
  O  O136  1  0.93910000  0.84620000  0.74420000  1.0
  O  O137  1  0.81600000  0.92750000  0.71480000  1.0
  O  O138  1  0.15030000  0.83940000  0.80850000  1.0
  O  O139  1  0.24770000  0.86980000  0.71360000  1.0
  O  O140  1  0.33750000  0.11600000  0.78720000  1.0
  O  O141  1  0.20940000  0.20030000  0.77350000  1.0
  O  O142  1  0.91590000  0.18640000  0.78240000  1.0
  O  O143  1  0.01540000  0.20550000  0.68390000  1.0
  O  O144  1  0.43910000  0.75580000  0.65380000  1.0
  O  O145  1  0.31600000  0.78520000  0.57250000  1.0
  O  O146  1  0.65030000  0.69150000  0.66060000  1.0
  O  O147  1  0.74770000  0.78640000  0.63020000  1.0
  O  O148  1  0.83750000  0.71280000  0.38400000  1.0
  O  O149  1  0.70940000  0.72650000  0.29970000  1.0
  O  O150  1  0.41590000  0.71760000  0.31360000  1.0
  O  O151  1  0.51540000  0.81610000  0.29450000  1.0
  O  O152  1  0.43910000  0.24420000  0.34620000  1.0
  O  O153  1  0.31600000  0.21480000  0.42750000  1.0
  O  O154  1  0.65030000  0.30850000  0.33940000  1.0
  O  O155  1  0.74770000  0.21360000  0.36980000  1.0
  O  O156  1  0.83750000  0.28720000  0.61600000  1.0
  O  O157  1  0.70940000  0.27350000  0.70030000  1.0
  O  O158  1  0.41590000  0.28240000  0.68640000  1.0
  O  O159  1  0.51540000  0.18390000  0.70550000  1.0
  O  O160  1  0.93910000  0.65380000  0.24420000  1.0
  O  O161  1  0.81600000  0.57250000  0.21480000  1.0
  O  O162  1  0.15030000  0.66060000  0.30850000  1.0
  O  O163  1  0.24770000  0.63020000  0.21360000  1.0
  O  O164  1  0.33750000  0.38400000  0.28720000  1.0
  O  O165  1  0.20940000  0.29970000  0.27350000  1.0
  O  O166  1  0.91590000  0.31360000  0.28240000  1.0
  O  O167  1  0.01540000  0.29450000  0.18390000  1.0
  O  O168  1  0.93910000  0.34620000  0.75580000  1.0
  O  O169  1  0.81600000  0.42750000  0.78520000  1.0
  O  O170  1  0.15030000  0.33940000  0.69150000  1.0
  O  O171  1  0.24770000  0.36980000  0.78640000  1.0
  O  O172  1  0.33750000  0.61600000  0.71280000  1.0
  O  O173  1  0.20940000  0.70030000  0.72650000  1.0
  O  O174  1  0.91590000  0.68640000  0.71760000  1.0
  O  O175  1  0.01540000  0.70550000  0.81610000  1.0
