# generated using pymatgen
data_MnH2(CO2)2
_symmetry_space_group_name_H-M   'P 1'
_cell_length_a   10.12790000
_cell_length_b   11.64950000
_cell_length_c   14.86080000
_cell_angle_alpha   91.67000000
_cell_angle_beta   90.00000000
_cell_angle_gamma   90.00000000
_symmetry_Int_Tables_number   1
_chemical_formula_structural   MnH2(CO2)2
_chemical_formula_sum   'Mn12 H24 C24 O48'
_cell_volume   1752.60633298
_cell_formula_units_Z   12
loop_
 _symmetry_equiv_pos_site_id
 _symmetry_equiv_pos_as_xyz
  1  'x, y, z'
loop_
 _atom_site_type_symbol
 _atom_site_label
 _atom_site_symmetry_multiplicity
 _atom_site_fract_x
 _atom_site_fract_y
 _atom_site_fract_z
 _atom_site_occupancy
  Mn  Mn0  1  0.91559000  0.75683000  0.13115000  1.0
  Mn  Mn1  1  0.10029000  0.73955000  0.31508000  1.0
  Mn  Mn2  1  0.41559000  0.74317000  0.36885000  1.0
  Mn  Mn3  1  0.60029000  0.76045000  0.18492000  1.0
  Mn  Mn4  1  0.08441000  0.24317000  0.86885000  1.0
  Mn  Mn5  1  0.89971000  0.26045000  0.68492000  1.0
  Mn  Mn6  1  0.58441000  0.25683000  0.63115000  1.0
  Mn  Mn7  1  0.39971000  0.23955000  0.81508000  1.0
  Mn  Mn8  1  0.00000000  0.50000000  0.00000000  1.0
  Mn  Mn9  1  0.50000000  0.00000000  0.50000000  1.0
  Mn  Mn10  1  0.00000000  0.00000000  0.00000000  1.0
  Mn  Mn11  1  0.50000000  0.50000000  0.50000000  1.0
  H  H12  1  0.74940000  0.86390000  0.36460000  1.0
  H  H13  1  0.02340000  0.47850000  0.26500000  1.0
  H  H14  1  0.61880000  0.55400000  0.04260000  1.0
  H  H15  1  0.18770000  0.97550000  0.23230000  1.0
  H  H16  1  0.15760000  0.69890000  0.92880000  1.0
  H  H17  1  0.70210000  0.99420000  0.01300000  1.0
  H  H18  1  0.24940000  0.63610000  0.13540000  1.0
  H  H19  1  0.52340000  0.02150000  0.23500000  1.0
  H  H20  1  0.11880000  0.94600000  0.45740000  1.0
  H  H21  1  0.68770000  0.52450000  0.26770000  1.0
  H  H22  1  0.65760000  0.80110000  0.57120000  1.0
  H  H23  1  0.20210000  0.50580000  0.48700000  1.0
  H  H24  1  0.25060000  0.13610000  0.63540000  1.0
  H  H25  1  0.97660000  0.52150000  0.73500000  1.0
  H  H26  1  0.38120000  0.44600000  0.95740000  1.0
  H  H27  1  0.81230000  0.02450000  0.76770000  1.0
  H  H28  1  0.84240000  0.30110000  0.07120000  1.0
  H  H29  1  0.29790000  0.00580000  0.98700000  1.0
  H  H30  1  0.75060000  0.36390000  0.86460000  1.0
  H  H31  1  0.47660000  0.97850000  0.76500000  1.0
  H  H32  1  0.88120000  0.05400000  0.54260000  1.0
  H  H33  1  0.31230000  0.47550000  0.73230000  1.0
  H  H34  1  0.34240000  0.19890000  0.42880000  1.0
  H  H35  1  0.79790000  0.49420000  0.51300000  1.0
  C  C36  1  0.81860000  0.83115000  0.32915000  1.0
  C  C37  1  0.00730000  0.51900000  0.21150000  1.0
  C  C38  1  0.70930000  0.57378000  0.04908000  1.0
  C  C39  1  0.12740000  0.94947000  0.18717000  1.0
  C  C40  1  0.10170000  0.74269000  0.96809000  1.0
  C  C41  1  0.71840000  0.93282000  0.05222000  1.0
  C  C42  1  0.31860000  0.66885000  0.17085000  1.0
  C  C43  1  0.50730000  0.98100000  0.28850000  1.0
  C  C44  1  0.20930000  0.92622000  0.45092000  1.0
  C  C45  1  0.62740000  0.55053000  0.31283000  1.0
  C  C46  1  0.60170000  0.75731000  0.53191000  1.0
  C  C47  1  0.21840000  0.56718000  0.44778000  1.0
  C  C48  1  0.18140000  0.16885000  0.67085000  1.0
  C  C49  1  0.99270000  0.48100000  0.78850000  1.0
  C  C50  1  0.29070000  0.42622000  0.95092000  1.0
  C  C51  1  0.87260000  0.05053000  0.81283000  1.0
  C  C52  1  0.89830000  0.25731000  0.03191000  1.0
  C  C53  1  0.28160000  0.06718000  0.94778000  1.0
  C  C54  1  0.68140000  0.33115000  0.82915000  1.0
  C  C55  1  0.49270000  0.01900000  0.71150000  1.0
  C  C56  1  0.79070000  0.07378000  0.54908000  1.0
  C  C57  1  0.37260000  0.44947000  0.68717000  1.0
  C  C58  1  0.39830000  0.24269000  0.46809000  1.0
  C  C59  1  0.78160000  0.43282000  0.55222000  1.0
  O  O60  1  0.79272000  0.80811000  0.24728000  1.0
  O  O61  1  0.92548000  0.81493000  0.36767000  1.0
  O  O62  1  0.99950000  0.62737000  0.21930000  1.0
  O  O63  1  0.99627000  0.46169000  0.14175000  1.0
  O  O64  1  0.73732000  0.65364000  0.10609000  1.0
  O  O65  1  0.78908000  0.51969000  0.00144000  1.0
  O  O66  1  0.07601000  0.85156000  0.19747000  1.0
  O  O67  1  0.10724000  0.01397000  0.12488000  1.0
  O  O68  1  0.02882000  0.68646000  0.02115000  1.0
  O  O69  1  0.10695000  0.84640000  0.96261000  1.0
  O  O70  1  0.83768000  0.90078000  0.05982000  1.0
  O  O71  1  0.62173000  0.89258000  0.09046000  1.0
  O  O72  1  0.29272000  0.69189000  0.25272000  1.0
  O  O73  1  0.42548000  0.68507000  0.13233000  1.0
  O  O74  1  0.49950000  0.87263000  0.28070000  1.0
  O  O75  1  0.49627000  0.03831000  0.35825000  1.0
  O  O76  1  0.23732000  0.84636000  0.39391000  1.0
  O  O77  1  0.28908000  0.98031000  0.49856000  1.0
  O  O78  1  0.57601000  0.64844000  0.30253000  1.0
  O  O79  1  0.60724000  0.48603000  0.37512000  1.0
  O  O80  1  0.52882000  0.81354000  0.47885000  1.0
  O  O81  1  0.60695000  0.65360000  0.53739000  1.0
  O  O82  1  0.33768000  0.59922000  0.44018000  1.0
  O  O83  1  0.12173000  0.60742000  0.40954000  1.0
  O  O84  1  0.20728000  0.19189000  0.75272000  1.0
  O  O85  1  0.07452000  0.18507000  0.63233000  1.0
  O  O86  1  0.00050000  0.37263000  0.78070000  1.0
  O  O87  1  0.00373000  0.53831000  0.85825000  1.0
  O  O88  1  0.26268000  0.34636000  0.89391000  1.0
  O  O89  1  0.21092000  0.48031000  0.99856000  1.0
  O  O90  1  0.92399000  0.14844000  0.80253000  1.0
  O  O91  1  0.89276000  0.98603000  0.87512000  1.0
  O  O92  1  0.97118000  0.31354000  0.97885000  1.0
  O  O93  1  0.89305000  0.15360000  0.03739000  1.0
  O  O94  1  0.16232000  0.09922000  0.94018000  1.0
  O  O95  1  0.37827000  0.10742000  0.90954000  1.0
  O  O96  1  0.70728000  0.30811000  0.74728000  1.0
  O  O97  1  0.57452000  0.31493000  0.86767000  1.0
  O  O98  1  0.50050000  0.12737000  0.71930000  1.0
  O  O99  1  0.50373000  0.96169000  0.64175000  1.0
  O  O100  1  0.76268000  0.15364000  0.60609000  1.0
  O  O101  1  0.71092000  0.01969000  0.50144000  1.0
  O  O102  1  0.42399000  0.35156000  0.69747000  1.0
  O  O103  1  0.39276000  0.51397000  0.62488000  1.0
  O  O104  1  0.47118000  0.18646000  0.52115000  1.0
  O  O105  1  0.39305000  0.34640000  0.46261000  1.0
  O  O106  1  0.66232000  0.40078000  0.55982000  1.0
  O  O107  1  0.87827000  0.39258000  0.59046000  1.0
