# generated using pymatgen
data_MnH2(CO2)2
_symmetry_space_group_name_H-M   'P 1'
_cell_length_a   10.16170000
_cell_length_b   11.65480000
_cell_length_c   15.29430000
_cell_angle_alpha   91.14950000
_cell_angle_beta   90.00000000
_cell_angle_gamma   90.00000000
_symmetry_Int_Tables_number   1
_chemical_formula_structural   MnH2(CO2)2
_chemical_formula_sum   'Mn12 H24 C24 O48'
_cell_volume   1810.97889969
_cell_formula_units_Z   12
loop_
 _symmetry_equiv_pos_site_id
 _symmetry_equiv_pos_as_xyz
  1  'x, y, z'
loop_
 _atom_site_type_symbol
 _atom_site_label
 _atom_site_symmetry_multiplicity
 _atom_site_fract_x
 _atom_site_fract_y
 _atom_site_fract_z
 _atom_site_occupancy
  Mn  Mn0  1  0.92207000  0.75523000  0.13184000  1.0
  Mn  Mn1  1  0.11043000  0.73843000  0.30855000  1.0
  Mn  Mn2  1  0.42207000  0.74477000  0.36816000  1.0
  Mn  Mn3  1  0.61043000  0.76157000  0.19145000  1.0
  Mn  Mn4  1  0.07793000  0.24477000  0.86816000  1.0
  Mn  Mn5  1  0.88957000  0.26157000  0.69145000  1.0
  Mn  Mn6  1  0.57793000  0.25523000  0.63184000  1.0
  Mn  Mn7  1  0.38957000  0.23843000  0.80855000  1.0
  Mn  Mn8  1  0.00000000  0.50000000  0.00000000  1.0
  Mn  Mn9  1  0.50000000  0.00000000  0.50000000  1.0
  Mn  Mn10  1  0.00000000  0.00000000  0.00000000  1.0
  Mn  Mn11  1  0.50000000  0.50000000  0.50000000  1.0
  H  H12  1  0.75500000  0.86720000  0.36320000  1.0
  H  H13  1  0.04700000  0.47300000  0.26200000  1.0
  H  H14  1  0.62100000  0.53890000  0.07090000  1.0
  H  H15  1  0.22400000  0.95530000  0.21230000  1.0
  H  H16  1  0.14200000  0.69240000  0.92040000  1.0
  H  H17  1  0.71200000  0.00690000  0.02890000  1.0
  H  H18  1  0.25500000  0.63280000  0.13680000  1.0
  H  H19  1  0.54700000  0.02700000  0.23800000  1.0
  H  H20  1  0.12100000  0.96110000  0.42910000  1.0
  H  H21  1  0.72400000  0.54470000  0.28770000  1.0
  H  H22  1  0.64200000  0.80760000  0.57960000  1.0
  H  H23  1  0.21200000  0.49310000  0.47110000  1.0
  H  H24  1  0.24500000  0.13280000  0.63680000  1.0
  H  H25  1  0.95300000  0.52700000  0.73800000  1.0
  H  H26  1  0.37900000  0.46110000  0.92910000  1.0
  H  H27  1  0.77600000  0.04470000  0.78770000  1.0
  H  H28  1  0.85800000  0.30760000  0.07960000  1.0
  H  H29  1  0.28800000  0.99310000  0.97110000  1.0
  H  H30  1  0.74500000  0.36720000  0.86320000  1.0
  H  H31  1  0.45300000  0.97300000  0.76200000  1.0
  H  H32  1  0.87900000  0.03890000  0.57090000  1.0
  H  H33  1  0.27600000  0.45530000  0.71230000  1.0
  H  H34  1  0.35800000  0.19240000  0.42040000  1.0
  H  H35  1  0.78800000  0.50690000  0.52890000  1.0
  C  C36  1  0.83190000  0.83144000  0.32724000  1.0
  C  C37  1  0.02520000  0.51826000  0.20696000  1.0
  C  C38  1  0.71330000  0.56596000  0.06556000  1.0
  C  C39  1  0.15110000  0.93716000  0.17336000  1.0
  C  C40  1  0.08980000  0.74104000  0.96244000  1.0
  C  C41  1  0.72600000  0.93932000  0.06362000  1.0
  C  C42  1  0.33190000  0.66856000  0.17276000  1.0
  C  C43  1  0.52520000  0.98174000  0.29304000  1.0
  C  C44  1  0.21330000  0.93404000  0.43444000  1.0
  C  C45  1  0.65110000  0.56284000  0.32664000  1.0
  C  C46  1  0.58980000  0.75896000  0.53756000  1.0
  C  C47  1  0.22600000  0.56068000  0.43638000  1.0
  C  C48  1  0.16810000  0.16856000  0.67276000  1.0
  C  C49  1  0.97480000  0.48174000  0.79304000  1.0
  C  C50  1  0.28670000  0.43404000  0.93444000  1.0
  C  C51  1  0.84890000  0.06284000  0.82664000  1.0
  C  C52  1  0.91020000  0.25896000  0.03756000  1.0
  C  C53  1  0.27400000  0.06068000  0.93638000  1.0
  C  C54  1  0.66810000  0.33144000  0.82724000  1.0
  C  C55  1  0.47480000  0.01826000  0.70696000  1.0
  C  C56  1  0.78670000  0.06596000  0.56556000  1.0
  C  C57  1  0.34890000  0.43716000  0.67336000  1.0
  C  C58  1  0.41020000  0.24104000  0.46244000  1.0
  C  C59  1  0.77400000  0.43932000  0.56362000  1.0
  O  O60  1  0.80368000  0.80973000  0.24736000  1.0
  O  O61  1  0.94029000  0.81542000  0.36237000  1.0
  O  O62  1  0.00774000  0.62581000  0.21628000  1.0
  O  O63  1  0.01977000  0.46322000  0.13721000  1.0
  O  O64  1  0.74321000  0.65230000  0.11468000  1.0
  O  O65  1  0.78957000  0.51089000  0.01824000  1.0
  O  O66  1  0.08754000  0.84658000  0.19152000  1.0
  O  O67  1  0.12904000  0.00146000  0.11176000  1.0
  O  O68  1  0.02258000  0.68660000  0.01907000  1.0
  O  O69  1  0.09620000  0.84610000  0.95623000  1.0
  O  O70  1  0.84397000  0.90310000  0.06634000  1.0
  O  O71  1  0.62987000  0.89828000  0.10165000  1.0
  O  O72  1  0.30368000  0.69027000  0.25264000  1.0
  O  O73  1  0.44029000  0.68458000  0.13763000  1.0
  O  O74  1  0.50774000  0.87419000  0.28372000  1.0
  O  O75  1  0.51977000  0.03678000  0.36279000  1.0
  O  O76  1  0.24321000  0.84770000  0.38532000  1.0
  O  O77  1  0.28957000  0.98911000  0.48176000  1.0
  O  O78  1  0.58754000  0.65342000  0.30848000  1.0
  O  O79  1  0.62904000  0.49854000  0.38824000  1.0
  O  O80  1  0.52258000  0.81340000  0.48093000  1.0
  O  O81  1  0.59620000  0.65390000  0.54377000  1.0
  O  O82  1  0.34397000  0.59690000  0.43366000  1.0
  O  O83  1  0.12987000  0.60172000  0.39835000  1.0
  O  O84  1  0.19632000  0.19027000  0.75264000  1.0
  O  O85  1  0.05971000  0.18458000  0.63763000  1.0
  O  O86  1  0.99226000  0.37419000  0.78372000  1.0
  O  O87  1  0.98023000  0.53678000  0.86279000  1.0
  O  O88  1  0.25679000  0.34770000  0.88532000  1.0
  O  O89  1  0.21043000  0.48911000  0.98176000  1.0
  O  O90  1  0.91246000  0.15342000  0.80848000  1.0
  O  O91  1  0.87096000  0.99854000  0.88824000  1.0
  O  O92  1  0.97742000  0.31340000  0.98093000  1.0
  O  O93  1  0.90380000  0.15390000  0.04377000  1.0
  O  O94  1  0.15603000  0.09690000  0.93366000  1.0
  O  O95  1  0.37013000  0.10172000  0.89835000  1.0
  O  O96  1  0.69632000  0.30973000  0.74736000  1.0
  O  O97  1  0.55971000  0.31542000  0.86237000  1.0
  O  O98  1  0.49226000  0.12581000  0.71628000  1.0
  O  O99  1  0.48023000  0.96322000  0.63721000  1.0
  O  O100  1  0.75679000  0.15230000  0.61468000  1.0
  O  O101  1  0.71043000  0.01089000  0.51824000  1.0
  O  O102  1  0.41246000  0.34658000  0.69152000  1.0
  O  O103  1  0.37096000  0.50146000  0.61176000  1.0
  O  O104  1  0.47742000  0.18660000  0.51907000  1.0
  O  O105  1  0.40380000  0.34610000  0.45623000  1.0
  O  O106  1  0.65603000  0.40310000  0.56634000  1.0
  O  O107  1  0.87013000  0.39828000  0.60165000  1.0
