# generated using pymatgen
data_Ce2H6(C3O4)3
_symmetry_space_group_name_H-M   'P 1'
_cell_length_a   11.31060000
_cell_length_b   12.66980000
_cell_length_c   14.73970000
_cell_angle_alpha   90.00000000
_cell_angle_beta   90.00000000
_cell_angle_gamma   90.00000000
_symmetry_Int_Tables_number   1
_chemical_formula_structural   Ce2H6(C3O4)3
_chemical_formula_sum   'Ce8 H24 C36 O48'
_cell_volume   2112.24381692
_cell_formula_units_Z   4
loop_
 _symmetry_equiv_pos_site_id
 _symmetry_equiv_pos_as_xyz
  1  'x, y, z'
loop_
 _atom_site_type_symbol
 _atom_site_label
 _atom_site_symmetry_multiplicity
 _atom_site_fract_x
 _atom_site_fract_y
 _atom_site_fract_z
 _atom_site_occupancy
  Ce  Ce0  1  0.14940000  0.88510000  0.49300000  1.0
  Ce  Ce1  1  0.35060000  0.61490000  0.99300000  1.0
  Ce  Ce2  1  0.85060000  0.88510000  0.00700000  1.0
  Ce  Ce3  1  0.64940000  0.61490000  0.50700000  1.0
  Ce  Ce4  1  0.85060000  0.11490000  0.50700000  1.0
  Ce  Ce5  1  0.64940000  0.38510000  0.00700000  1.0
  Ce  Ce6  1  0.14940000  0.11490000  0.99300000  1.0
  Ce  Ce7  1  0.35060000  0.38510000  0.49300000  1.0
  H  H8  1  0.44870000  0.09230000  0.34520000  1.0
  H  H9  1  0.33820000  0.03150000  0.30850000  1.0
  H  H10  1  0.06670000  0.09650000  0.23570000  1.0
  H  H11  1  0.05130000  0.40770000  0.84520000  1.0
  H  H12  1  0.16180000  0.46850000  0.80850000  1.0
  H  H13  1  0.43330000  0.40350000  0.73570000  1.0
  H  H14  1  0.55130000  0.09230000  0.15480000  1.0
  H  H15  1  0.66180000  0.03150000  0.19150000  1.0
  H  H16  1  0.93330000  0.09650000  0.26430000  1.0
  H  H17  1  0.94870000  0.40770000  0.65480000  1.0
  H  H18  1  0.83820000  0.46850000  0.69150000  1.0
  H  H19  1  0.56670000  0.40350000  0.76430000  1.0
  H  H20  1  0.55130000  0.90770000  0.65480000  1.0
  H  H21  1  0.66180000  0.96850000  0.69150000  1.0
  H  H22  1  0.93330000  0.90350000  0.76430000  1.0
  H  H23  1  0.94870000  0.59230000  0.15480000  1.0
  H  H24  1  0.83820000  0.53150000  0.19150000  1.0
  H  H25  1  0.56670000  0.59650000  0.26430000  1.0
  H  H26  1  0.44870000  0.90770000  0.84520000  1.0
  H  H27  1  0.33820000  0.96850000  0.80850000  1.0
  H  H28  1  0.06670000  0.90350000  0.73570000  1.0
  H  H29  1  0.05130000  0.59230000  0.34520000  1.0
  H  H30  1  0.16180000  0.53150000  0.30850000  1.0
  H  H31  1  0.43330000  0.59650000  0.23570000  1.0
  C  C32  1  0.42850000  0.94780000  0.40440000  1.0
  C  C33  1  0.38180000  0.04910000  0.36310000  1.0
  C  C34  1  0.30260000  0.11400000  0.42410000  1.0
  C  C35  1  0.02980000  0.98610000  0.33220000  1.0
  C  C36  1  0.07150000  0.55220000  0.90440000  1.0
  C  C37  1  0.11820000  0.45090000  0.86310000  1.0
  C  C38  1  0.19740000  0.38600000  0.92410000  1.0
  C  C39  1  0.47020000  0.51390000  0.83220000  1.0
  C  C40  1  0.57150000  0.94780000  0.09560000  1.0
  C  C41  1  0.61820000  0.04910000  0.13690000  1.0
  C  C42  1  0.69740000  0.11400000  0.07590000  1.0
  C  C43  1  0.97020000  0.98610000  0.16780000  1.0
  C  C44  1  0.92850000  0.55220000  0.59560000  1.0
  C  C45  1  0.88180000  0.45090000  0.63690000  1.0
  C  C46  1  0.80260000  0.38600000  0.57590000  1.0
  C  C47  1  0.52980000  0.51390000  0.66780000  1.0
  C  C48  1  0.57150000  0.05220000  0.59560000  1.0
  C  C49  1  0.61820000  0.95090000  0.63690000  1.0
  C  C50  1  0.69740000  0.88600000  0.57590000  1.0
  C  C51  1  0.97020000  0.01390000  0.66780000  1.0
  C  C52  1  0.92850000  0.44780000  0.09560000  1.0
  C  C53  1  0.88180000  0.54910000  0.13690000  1.0
  C  C54  1  0.80260000  0.61400000  0.07590000  1.0
  C  C55  1  0.52980000  0.48610000  0.16780000  1.0
  C  C56  1  0.42850000  0.05220000  0.90440000  1.0
  C  C57  1  0.38180000  0.95090000  0.86310000  1.0
  C  C58  1  0.30260000  0.88600000  0.92410000  1.0
  C  C59  1  0.02980000  0.01390000  0.83220000  1.0
  C  C60  1  0.07150000  0.44780000  0.40440000  1.0
  C  C61  1  0.11820000  0.54910000  0.36310000  1.0
  C  C62  1  0.19740000  0.61400000  0.42410000  1.0
  C  C63  1  0.47020000  0.48610000  0.33220000  1.0
  C  C64  1  0.00000000  0.05140000  0.25000000  1.0
  C  C65  1  0.50000000  0.44860000  0.75000000  1.0
  C  C66  1  0.00000000  0.94860000  0.75000000  1.0
  C  C67  1  0.50000000  0.55140000  0.25000000  1.0
  O  O68  1  0.35440000  0.88270000  0.43700000  1.0
  O  O69  1  0.22170000  0.06770000  0.46800000  1.0
  O  O70  1  0.53660000  0.93140000  0.40200000  1.0
  O  O71  1  0.31810000  0.21170000  0.42600000  1.0
  O  O72  1  0.10300000  0.91330000  0.32500000  1.0
  O  O73  1  0.98510000  0.00830000  0.40820000  1.0
  O  O74  1  0.14560000  0.61730000  0.93700000  1.0
  O  O75  1  0.27830000  0.43230000  0.96800000  1.0
  O  O76  1  0.96340000  0.56860000  0.90200000  1.0
  O  O77  1  0.18190000  0.28830000  0.92600000  1.0
  O  O78  1  0.39700000  0.58670000  0.82500000  1.0
  O  O79  1  0.51490000  0.49170000  0.90820000  1.0
  O  O80  1  0.64560000  0.88270000  0.06300000  1.0
  O  O81  1  0.77830000  0.06770000  0.03200000  1.0
  O  O82  1  0.46340000  0.93140000  0.09800000  1.0
  O  O83  1  0.68190000  0.21170000  0.07400000  1.0
  O  O84  1  0.89700000  0.91330000  0.17500000  1.0
  O  O85  1  0.01490000  0.00830000  0.09180000  1.0
  O  O86  1  0.85440000  0.61730000  0.56300000  1.0
  O  O87  1  0.72170000  0.43230000  0.53200000  1.0
  O  O88  1  0.03660000  0.56860000  0.59800000  1.0
  O  O89  1  0.81810000  0.28830000  0.57400000  1.0
  O  O90  1  0.60300000  0.58670000  0.67500000  1.0
  O  O91  1  0.48510000  0.49170000  0.59180000  1.0
  O  O92  1  0.64560000  0.11730000  0.56300000  1.0
  O  O93  1  0.77830000  0.93230000  0.53200000  1.0
  O  O94  1  0.46340000  0.06860000  0.59800000  1.0
  O  O95  1  0.68190000  0.78830000  0.57400000  1.0
  O  O96  1  0.89700000  0.08670000  0.67500000  1.0
  O  O97  1  0.01490000  0.99170000  0.59180000  1.0
  O  O98  1  0.85440000  0.38270000  0.06300000  1.0
  O  O99  1  0.72170000  0.56770000  0.03200000  1.0
  O  O100  1  0.03660000  0.43140000  0.09800000  1.0
  O  O101  1  0.81810000  0.71170000  0.07400000  1.0
  O  O102  1  0.60300000  0.41330000  0.17500000  1.0
  O  O103  1  0.48510000  0.50830000  0.09180000  1.0
  O  O104  1  0.35440000  0.11730000  0.93700000  1.0
  O  O105  1  0.22170000  0.93230000  0.96800000  1.0
  O  O106  1  0.53660000  0.06860000  0.90200000  1.0
  O  O107  1  0.31810000  0.78830000  0.92600000  1.0
  O  O108  1  0.10300000  0.08670000  0.82500000  1.0
  O  O109  1  0.98510000  0.99170000  0.90820000  1.0
  O  O110  1  0.14560000  0.38270000  0.43700000  1.0
  O  O111  1  0.27830000  0.56770000  0.46800000  1.0
  O  O112  1  0.96340000  0.43140000  0.40200000  1.0
  O  O113  1  0.18190000  0.71170000  0.42600000  1.0
  O  O114  1  0.39700000  0.41330000  0.32500000  1.0
  O  O115  1  0.51490000  0.50830000  0.40820000  1.0
