# generated using pymatgen
data_ZnH32C22(NO)4
_symmetry_space_group_name_H-M   'P 1'
_cell_length_a   25.11700000
_cell_length_b   5.78020000
_cell_length_c   21.99300000
_cell_angle_alpha   90.00000000
_cell_angle_beta   120.74400000
_cell_angle_gamma   90.00000000
_symmetry_Int_Tables_number   1
_chemical_formula_structural   ZnH32C22(NO)4
_chemical_formula_sum   'Zn4 H128 C88 N16 O16'
_cell_volume   2744.23152378
_cell_formula_units_Z   4
loop_
 _symmetry_equiv_pos_site_id
 _symmetry_equiv_pos_as_xyz
  1  'x, y, z'
loop_
 _atom_site_type_symbol
 _atom_site_label
 _atom_site_symmetry_multiplicity
 _atom_site_fract_x
 _atom_site_fract_y
 _atom_site_fract_z
 _atom_site_occupancy
  Zn  Zn0  1  0.50000000  0.16900000  0.00000000  1.0
  Zn  Zn1  1  0.00000000  0.66900000  0.00000000  1.0
  Zn  Zn2  1  0.50000000  0.45090000  0.50000000  1.0
  Zn  Zn3  1  0.00000000  0.95090000  0.50000000  1.0
  H  H4  1  0.54630000  0.51650000  0.39970000  1.0
  H  H5  1  0.54620000  0.32900000  0.30890000  1.0
  H  H6  1  0.43840000  0.83810000  0.31690000  1.0
  H  H7  1  0.44490000  0.01670000  0.41210000  1.0
  H  H8  1  0.49480000  0.79300000  0.24290000  1.0
  H  H9  1  0.51480000  0.02970000  0.22560000  1.0
  H  H10  1  0.43300000  0.72790000  0.11660000  1.0
  H  H11  1  0.32540000  0.78550000  0.06980000  1.0
  H  H12  1  0.33850000  0.80470000  0.95200000  1.0
  H  H13  1  0.29690000  0.63770000  0.96640000  1.0
  H  H14  1  0.36860000  0.59640000  0.00440000  1.0
  H  H15  1  0.33060000  0.18010000  0.99820000  1.0
  H  H16  1  0.31710000  0.18550000  0.06030000  1.0
  H  H17  1  0.26950000  0.06990000  0.98800000  1.0
  H  H18  1  0.11700000  0.97750000  0.07940000  1.0
  H  H19  1  0.21430000  0.97880000  0.17850000  1.0
  H  H20  1  0.18040000  0.34910000  0.22310000  1.0
  H  H21  1  0.08390000  0.36700000  0.12600000  1.0
  H  H22  1  0.29390000  0.80110000  0.27750000  1.0
  H  H23  1  0.29530000  0.52940000  0.27740000  1.0
  H  H24  1  0.33530000  0.89750000  0.39530000  1.0
  H  H25  1  0.27070000  0.87050000  0.44430000  1.0
  H  H26  1  0.33920000  0.02070000  0.54770000  1.0
  H  H27  1  0.37040000  0.06380000  0.50260000  1.0
  H  H28  1  0.39300000  0.85920000  0.55700000  1.0
  H  H29  1  0.33600000  0.46860000  0.51410000  1.0
  H  H30  1  0.26470000  0.48420000  0.45950000  1.0
  H  H31  1  0.29260000  0.60270000  0.53380000  1.0
  H  H32  1  0.39240000  0.91910000  0.17940000  1.0
  H  H33  1  0.41100000  0.13830000  0.16330000  1.0
  H  H34  1  0.25900000  0.51360000  0.35030000  1.0
  H  H35  1  0.23370000  0.74680000  0.33440000  1.0
  H  H36  1  0.04630000  0.01650000  0.39970000  1.0
  H  H37  1  0.04620000  0.82900000  0.30890000  1.0
  H  H38  1  0.93840000  0.33810000  0.31690000  1.0
  H  H39  1  0.94490000  0.51670000  0.41210000  1.0
  H  H40  1  0.99480000  0.29300000  0.24290000  1.0
  H  H41  1  0.01480000  0.52970000  0.22560000  1.0
  H  H42  1  0.93300000  0.22790000  0.11660000  1.0
  H  H43  1  0.82540000  0.28550000  0.06980000  1.0
  H  H44  1  0.83850000  0.30470000  0.95200000  1.0
  H  H45  1  0.79690000  0.13770000  0.96640000  1.0
  H  H46  1  0.86860000  0.09640000  0.00440000  1.0
  H  H47  1  0.83060000  0.68010000  0.99820000  1.0
  H  H48  1  0.81710000  0.68550000  0.06030000  1.0
  H  H49  1  0.76950000  0.56990000  0.98800000  1.0
  H  H50  1  0.61700000  0.47750000  0.07940000  1.0
  H  H51  1  0.71430000  0.47880000  0.17850000  1.0
  H  H52  1  0.68040000  0.84910000  0.22310000  1.0
  H  H53  1  0.58390000  0.86700000  0.12600000  1.0
  H  H54  1  0.79390000  0.30110000  0.27750000  1.0
  H  H55  1  0.79530000  0.02940000  0.27740000  1.0
  H  H56  1  0.83530000  0.39750000  0.39530000  1.0
  H  H57  1  0.77070000  0.37050000  0.44430000  1.0
  H  H58  1  0.83920000  0.52070000  0.54770000  1.0
  H  H59  1  0.87040000  0.56380000  0.50260000  1.0
  H  H60  1  0.89300000  0.35920000  0.55700000  1.0
  H  H61  1  0.83600000  0.96860000  0.51410000  1.0
  H  H62  1  0.76470000  0.98420000  0.45950000  1.0
  H  H63  1  0.79260000  0.10270000  0.53380000  1.0
  H  H64  1  0.89240000  0.41910000  0.17940000  1.0
  H  H65  1  0.91100000  0.63830000  0.16330000  1.0
  H  H66  1  0.75900000  0.01360000  0.35030000  1.0
  H  H67  1  0.73370000  0.24680000  0.33440000  1.0
  H  H68  1  0.45370000  0.51650000  0.60030000  1.0
  H  H69  1  0.45380000  0.32900000  0.69110000  1.0
  H  H70  1  0.56160000  0.83810000  0.68310000  1.0
  H  H71  1  0.55510000  0.01670000  0.58790000  1.0
  H  H72  1  0.50520000  0.79300000  0.75710000  1.0
  H  H73  1  0.48520000  0.02970000  0.77440000  1.0
  H  H74  1  0.56700000  0.72790000  0.88340000  1.0
  H  H75  1  0.67460000  0.78550000  0.93020000  1.0
  H  H76  1  0.66150000  0.80470000  0.04800000  1.0
  H  H77  1  0.70310000  0.63770000  0.03360000  1.0
  H  H78  1  0.63140000  0.59640000  0.99560000  1.0
  H  H79  1  0.66940000  0.18010000  0.00180000  1.0
  H  H80  1  0.68290000  0.18550000  0.93970000  1.0
  H  H81  1  0.73050000  0.06990000  0.01200000  1.0
  H  H82  1  0.88300000  0.97750000  0.92060000  1.0
  H  H83  1  0.78570000  0.97880000  0.82150000  1.0
  H  H84  1  0.81960000  0.34910000  0.77690000  1.0
  H  H85  1  0.91610000  0.36700000  0.87400000  1.0
  H  H86  1  0.70610000  0.80110000  0.72250000  1.0
  H  H87  1  0.70470000  0.52940000  0.72260000  1.0
  H  H88  1  0.66470000  0.89750000  0.60470000  1.0
  H  H89  1  0.72930000  0.87050000  0.55570000  1.0
  H  H90  1  0.66080000  0.02070000  0.45230000  1.0
  H  H91  1  0.62960000  0.06380000  0.49740000  1.0
  H  H92  1  0.60700000  0.85920000  0.44300000  1.0
  H  H93  1  0.66400000  0.46860000  0.48590000  1.0
  H  H94  1  0.73530000  0.48420000  0.54050000  1.0
  H  H95  1  0.70740000  0.60270000  0.46620000  1.0
  H  H96  1  0.60760000  0.91910000  0.82060000  1.0
  H  H97  1  0.58900000  0.13830000  0.83670000  1.0
  H  H98  1  0.74100000  0.51360000  0.64970000  1.0
  H  H99  1  0.76630000  0.74680000  0.66560000  1.0
  H  H100  1  0.95370000  0.01650000  0.60030000  1.0
  H  H101  1  0.95380000  0.82900000  0.69110000  1.0
  H  H102  1  0.06160000  0.33810000  0.68310000  1.0
  H  H103  1  0.05510000  0.51670000  0.58790000  1.0
  H  H104  1  0.00520000  0.29300000  0.75710000  1.0
  H  H105  1  0.98520000  0.52970000  0.77440000  1.0
  H  H106  1  0.06700000  0.22790000  0.88340000  1.0
  H  H107  1  0.17460000  0.28550000  0.93020000  1.0
  H  H108  1  0.16150000  0.30470000  0.04800000  1.0
  H  H109  1  0.20310000  0.13770000  0.03360000  1.0
  H  H110  1  0.13140000  0.09640000  0.99560000  1.0
  H  H111  1  0.16940000  0.68010000  0.00180000  1.0
  H  H112  1  0.18290000  0.68550000  0.93970000  1.0
  H  H113  1  0.23050000  0.56990000  0.01200000  1.0
  H  H114  1  0.38300000  0.47750000  0.92060000  1.0
  H  H115  1  0.28570000  0.47880000  0.82150000  1.0
  H  H116  1  0.31960000  0.84910000  0.77690000  1.0
  H  H117  1  0.41610000  0.86700000  0.87400000  1.0
  H  H118  1  0.20610000  0.30110000  0.72250000  1.0
  H  H119  1  0.20470000  0.02940000  0.72260000  1.0
  H  H120  1  0.16470000  0.39750000  0.60470000  1.0
  H  H121  1  0.22930000  0.37050000  0.55570000  1.0
  H  H122  1  0.16080000  0.52070000  0.45230000  1.0
  H  H123  1  0.12960000  0.56380000  0.49740000  1.0
  H  H124  1  0.10700000  0.35920000  0.44300000  1.0
  H  H125  1  0.16400000  0.96860000  0.48590000  1.0
  H  H126  1  0.23530000  0.98420000  0.54050000  1.0
  H  H127  1  0.20740000  0.10270000  0.46620000  1.0
  H  H128  1  0.10760000  0.41910000  0.82060000  1.0
  H  H129  1  0.08900000  0.63830000  0.83670000  1.0
  H  H130  1  0.24100000  0.01360000  0.64970000  1.0
  H  H131  1  0.26630000  0.24680000  0.66560000  1.0
  C  C132  1  0.52590000  0.37600000  0.38410000  1.0
  C  C133  1  0.52400000  0.26800000  0.32850000  1.0
  C  C134  1  0.48870000  0.06280000  0.29930000  1.0
  C  C135  1  0.46090000  0.97500000  0.33333333  1.0
  C  C136  1  0.46530000  0.08200000  0.39100000  1.0
  C  C137  1  0.48480000  0.95600000  0.23470000  1.0
  C  C138  1  0.41460000  0.88280000  0.10560000  1.0
  C  C139  1  0.44850000  0.03360000  0.07890000  1.0
  C  C140  1  0.34590000  0.86500000  0.04790000  1.0
  C  C141  1  0.33660000  0.71200000  0.98710000  1.0
  C  C142  1  0.31270000  0.09700000  0.02110000  1.0
  C  C143  1  0.12920000  0.85000000  0.10950000  1.0
  C  C144  1  0.18870000  0.85100000  0.16870000  1.0
  C  C145  1  0.20970000  0.66000000  0.21280000  1.0
  C  C146  1  0.16850000  0.48100000  0.19500000  1.0
  C  C147  1  0.11010000  0.49300000  0.13650000  1.0
  C  C148  1  0.27180000  0.66300000  0.27720000  1.0
  C  C149  1  0.32390000  0.74890000  0.40700000  1.0
  C  C150  1  0.37710000  0.57850000  0.42820000  1.0
  C  C151  1  0.31030000  0.78710000  0.46600000  1.0
  C  C152  1  0.35760000  0.94800000  0.52370000  1.0
  C  C153  1  0.29990000  0.56500000  0.49620000  1.0
  C  C154  1  0.02590000  0.87600000  0.38410000  1.0
  C  C155  1  0.02400000  0.76800000  0.32850000  1.0
  C  C156  1  0.98870000  0.56280000  0.29930000  1.0
  C  C157  1  0.96090000  0.47500000  0.33333333  1.0
  C  C158  1  0.96530000  0.58200000  0.39100000  1.0
  C  C159  1  0.98480000  0.45600000  0.23470000  1.0
  C  C160  1  0.91460000  0.38280000  0.10560000  1.0
  C  C161  1  0.94850000  0.53360000  0.07890000  1.0
  C  C162  1  0.84590000  0.36500000  0.04790000  1.0
  C  C163  1  0.83660000  0.21200000  0.98710000  1.0
  C  C164  1  0.81270000  0.59700000  0.02110000  1.0
  C  C165  1  0.62920000  0.35000000  0.10950000  1.0
  C  C166  1  0.68870000  0.35100000  0.16870000  1.0
  C  C167  1  0.70970000  0.16000000  0.21280000  1.0
  C  C168  1  0.66850000  0.98100000  0.19500000  1.0
  C  C169  1  0.61010000  0.99300000  0.13650000  1.0
  C  C170  1  0.77180000  0.16300000  0.27720000  1.0
  C  C171  1  0.82390000  0.24890000  0.40700000  1.0
  C  C172  1  0.87710000  0.07850000  0.42820000  1.0
  C  C173  1  0.81030000  0.28710000  0.46600000  1.0
  C  C174  1  0.85760000  0.44800000  0.52370000  1.0
  C  C175  1  0.79990000  0.06500000  0.49620000  1.0
  C  C176  1  0.47410000  0.37600000  0.61590000  1.0
  C  C177  1  0.47600000  0.26800000  0.67150000  1.0
  C  C178  1  0.51130000  0.06280000  0.70070000  1.0
  C  C179  1  0.53910000  0.97500000  0.66666667  1.0
  C  C180  1  0.53470000  0.08200000  0.60900000  1.0
  C  C181  1  0.51520000  0.95600000  0.76530000  1.0
  C  C182  1  0.58540000  0.88280000  0.89440000  1.0
  C  C183  1  0.55150000  0.03360000  0.92110000  1.0
  C  C184  1  0.65410000  0.86500000  0.95210000  1.0
  C  C185  1  0.66340000  0.71200000  0.01290000  1.0
  C  C186  1  0.68730000  0.09700000  0.97890000  1.0
  C  C187  1  0.87080000  0.85000000  0.89050000  1.0
  C  C188  1  0.81130000  0.85100000  0.83130000  1.0
  C  C189  1  0.79030000  0.66000000  0.78720000  1.0
  C  C190  1  0.83150000  0.48100000  0.80500000  1.0
  C  C191  1  0.88990000  0.49300000  0.86350000  1.0
  C  C192  1  0.72820000  0.66300000  0.72280000  1.0
  C  C193  1  0.67610000  0.74890000  0.59300000  1.0
  C  C194  1  0.62290000  0.57850000  0.57180000  1.0
  C  C195  1  0.68970000  0.78710000  0.53400000  1.0
  C  C196  1  0.64240000  0.94800000  0.47630000  1.0
  C  C197  1  0.70010000  0.56500000  0.50380000  1.0
  C  C198  1  0.97410000  0.87600000  0.61590000  1.0
  C  C199  1  0.97600000  0.76800000  0.67150000  1.0
  C  C200  1  0.01130000  0.56280000  0.70070000  1.0
  C  C201  1  0.03910000  0.47500000  0.66666667  1.0
  C  C202  1  0.03470000  0.58200000  0.60900000  1.0
  C  C203  1  0.01520000  0.45600000  0.76530000  1.0
  C  C204  1  0.08540000  0.38280000  0.89440000  1.0
  C  C205  1  0.05150000  0.53360000  0.92110000  1.0
  C  C206  1  0.15410000  0.36500000  0.95210000  1.0
  C  C207  1  0.16340000  0.21200000  0.01290000  1.0
  C  C208  1  0.18730000  0.59700000  0.97890000  1.0
  C  C209  1  0.37080000  0.35000000  0.89050000  1.0
  C  C210  1  0.31130000  0.35100000  0.83130000  1.0
  C  C211  1  0.29030000  0.16000000  0.78720000  1.0
  C  C212  1  0.33150000  0.98100000  0.80500000  1.0
  C  C213  1  0.38990000  0.99300000  0.86350000  1.0
  C  C214  1  0.22820000  0.16300000  0.72280000  1.0
  C  C215  1  0.17610000  0.24890000  0.59300000  1.0
  C  C216  1  0.12290000  0.07850000  0.57180000  1.0
  C  C217  1  0.18970000  0.28710000  0.53400000  1.0
  C  C218  1  0.14240000  0.44800000  0.47630000  1.0
  C  C219  1  0.20010000  0.06500000  0.50380000  1.0
  N  N220  1  0.49740000  0.27780000  0.41860000  1.0
  N  N221  1  0.42000000  0.98650000  0.17070000  1.0
  N  N222  1  0.08880000  0.68000000  0.09350000  1.0
  N  N223  1  0.26630000  0.65950000  0.34220000  1.0
  N  N224  1  0.99740000  0.77780000  0.41860000  1.0
  N  N225  1  0.92000000  0.48650000  0.17070000  1.0
  N  N226  1  0.58880000  0.18000000  0.09350000  1.0
  N  N227  1  0.76630000  0.15950000  0.34220000  1.0
  N  N228  1  0.50260000  0.27780000  0.58140000  1.0
  N  N229  1  0.58000000  0.98650000  0.82930000  1.0
  N  N230  1  0.91120000  0.68000000  0.90650000  1.0
  N  N231  1  0.73370000  0.65950000  0.65780000  1.0
  N  N232  1  0.00260000  0.77780000  0.58140000  1.0
  N  N233  1  0.08000000  0.48650000  0.82930000  1.0
  N  N234  1  0.41120000  0.18000000  0.90650000  1.0
  N  N235  1  0.23370000  0.15950000  0.65780000  1.0
  O  O236  1  0.43070000  0.67480000  0.46840000  1.0
  O  O237  1  0.36690000  0.37700000  0.41000000  1.0
  O  O238  1  0.46600000  0.92540000  0.04170000  1.0
  O  O239  1  0.45710000  0.24410000  0.09360000  1.0
  O  O240  1  0.93070000  0.17480000  0.46840000  1.0
  O  O241  1  0.86690000  0.87700000  0.41000000  1.0
  O  O242  1  0.96600000  0.42540000  0.04170000  1.0
  O  O243  1  0.95710000  0.74410000  0.09360000  1.0
  O  O244  1  0.56930000  0.67480000  0.53160000  1.0
  O  O245  1  0.63310000  0.37700000  0.59000000  1.0
  O  O246  1  0.53400000  0.92540000  0.95830000  1.0
  O  O247  1  0.54290000  0.24410000  0.90640000  1.0
  O  O248  1  0.06930000  0.17480000  0.53160000  1.0
  O  O249  1  0.13310000  0.87700000  0.59000000  1.0
  O  O250  1  0.03400000  0.42540000  0.95830000  1.0
  O  O251  1  0.04290000  0.74410000  0.90640000  1.0
