# generated using pymatgen
data_La4SiH8W12C20(NO7)8
_symmetry_space_group_name_H-M   'P 1'
_cell_length_a   13.68500000
_cell_length_b   13.14400000
_cell_length_c   22.64900000
_cell_angle_alpha   90.00000000
_cell_angle_beta   100.55100000
_cell_angle_gamma   90.00000000
_symmetry_Int_Tables_number   1
_chemical_formula_structural   La4SiH8W12C20(NO7)8
_chemical_formula_sum   'La8 Si2 H16 W24 C40 N16 O112'
_cell_volume   4005.12137192
_cell_formula_units_Z   2
loop_
 _symmetry_equiv_pos_site_id
 _symmetry_equiv_pos_as_xyz
  1  'x, y, z'
loop_
 _atom_site_type_symbol
 _atom_site_label
 _atom_site_symmetry_multiplicity
 _atom_site_fract_x
 _atom_site_fract_y
 _atom_site_fract_z
 _atom_site_occupancy
  La  La0  1  0.27569000  0.40167000  0.17655000  1.0
  La  La1  1  0.78086000  0.40149000  0.22202000  1.0
  La  La2  1  0.72431000  0.90167000  0.32345000  1.0
  La  La3  1  0.21914000  0.90149000  0.27798000  1.0
  La  La4  1  0.72431000  0.59833000  0.82345000  1.0
  La  La5  1  0.21914000  0.59851000  0.77798000  1.0
  La  La6  1  0.27569000  0.09833000  0.67655000  1.0
  La  La7  1  0.78086000  0.09851000  0.72202000  1.0
  Si  Si8  1  0.50000000  0.50000000  0.50000000  1.0
  Si  Si9  1  0.50000000  0.00000000  0.00000000  1.0
  H  H10  1  0.40910000  0.64350000  0.22340000  1.0
  H  H11  1  0.07010000  0.10430000  0.22960000  1.0
  H  H12  1  0.45340000  0.79740000  0.26770000  1.0
  H  H13  1  0.02650000  0.26620000  0.19790000  1.0
  H  H14  1  0.59090000  0.14350000  0.27660000  1.0
  H  H15  1  0.92990000  0.60430000  0.27040000  1.0
  H  H16  1  0.54660000  0.29740000  0.23230000  1.0
  H  H17  1  0.97350000  0.76620000  0.30210000  1.0
  H  H18  1  0.59090000  0.35650000  0.77660000  1.0
  H  H19  1  0.92990000  0.89570000  0.77040000  1.0
  H  H20  1  0.54660000  0.20260000  0.73230000  1.0
  H  H21  1  0.97350000  0.73380000  0.80210000  1.0
  H  H22  1  0.40910000  0.85650000  0.72340000  1.0
  H  H23  1  0.07010000  0.39570000  0.72960000  1.0
  H  H24  1  0.45340000  0.70260000  0.76770000  1.0
  H  H25  1  0.02650000  0.23380000  0.69790000  1.0
  W  W26  1  0.23809000  0.48897000  0.47599000  1.0
  W  W27  1  0.35508000  0.68963000  0.41363000  1.0
  W  W28  1  0.36624000  0.44240000  0.35741000  1.0
  W  W29  1  0.50929000  0.25307000  0.44144000  1.0
  W  W30  1  0.38202000  0.30063000  0.56149000  1.0
  W  W31  1  0.37210000  0.54721000  0.62070000  1.0
  W  W32  1  0.76191000  0.98897000  0.02401000  1.0
  W  W33  1  0.64492000  0.18963000  0.08637000  1.0
  W  W34  1  0.63376000  0.94240000  0.14259000  1.0
  W  W35  1  0.49071000  0.75307000  0.05856000  1.0
  W  W36  1  0.61798000  0.80063000  0.93851000  1.0
  W  W37  1  0.62790000  0.04721000  0.87930000  1.0
  W  W38  1  0.76191000  0.51103000  0.52401000  1.0
  W  W39  1  0.64492000  0.31037000  0.58637000  1.0
  W  W40  1  0.63376000  0.55760000  0.64259000  1.0
  W  W41  1  0.49071000  0.74693000  0.55856000  1.0
  W  W42  1  0.61798000  0.69937000  0.43851000  1.0
  W  W43  1  0.62790000  0.45279000  0.37930000  1.0
  W  W44  1  0.23809000  0.01103000  0.97599000  1.0
  W  W45  1  0.35508000  0.81037000  0.91363000  1.0
  W  W46  1  0.36624000  0.05760000  0.85741000  1.0
  W  W47  1  0.50929000  0.24693000  0.94144000  1.0
  W  W48  1  0.38202000  0.19937000  0.06149000  1.0
  W  W49  1  0.37210000  0.95279000  0.12070000  1.0
  C  C50  1  0.49800000  0.74800000  0.26000000  1.0
  C  C51  1  0.55230000  0.60710000  0.22980000  1.0
  C  C52  1  0.63120000  0.67060000  0.25410000  1.0
  C  C53  1  0.73600000  0.66200000  0.26600000  1.0
  C  C54  1  0.53360000  0.50370000  0.20030000  1.0
  C  C55  1  0.98800000  0.22100000  0.21510000  1.0
  C  C56  1  0.86600000  0.15500000  0.25160000  1.0
  C  C57  1  0.94900000  0.08550000  0.26280000  1.0
  C  C58  1  0.96600000  0.98400000  0.28760000  1.0
  C  C59  1  0.77400000  0.15800000  0.27210000  1.0
  C  C60  1  0.50200000  0.24800000  0.24000000  1.0
  C  C61  1  0.44770000  0.10710000  0.27020000  1.0
  C  C62  1  0.36880000  0.17060000  0.24590000  1.0
  C  C63  1  0.26400000  0.16200000  0.23400000  1.0
  C  C64  1  0.46640000  0.00370000  0.29970000  1.0
  C  C65  1  0.01200000  0.72100000  0.28490000  1.0
  C  C66  1  0.13400000  0.65500000  0.24840000  1.0
  C  C67  1  0.05100000  0.58550000  0.23720000  1.0
  C  C68  1  0.03400000  0.48400000  0.21240000  1.0
  C  C69  1  0.22600000  0.65800000  0.22790000  1.0
  C  C70  1  0.50200000  0.25200000  0.74000000  1.0
  C  C71  1  0.44770000  0.39290000  0.77020000  1.0
  C  C72  1  0.36880000  0.32940000  0.74590000  1.0
  C  C73  1  0.26400000  0.33800000  0.73400000  1.0
  C  C74  1  0.46640000  0.49630000  0.79970000  1.0
  C  C75  1  0.01200000  0.77900000  0.78490000  1.0
  C  C76  1  0.13400000  0.84500000  0.74840000  1.0
  C  C77  1  0.05100000  0.91450000  0.73720000  1.0
  C  C78  1  0.03400000  0.01600000  0.71240000  1.0
  C  C79  1  0.22600000  0.84200000  0.72790000  1.0
  C  C80  1  0.49800000  0.75200000  0.76000000  1.0
  C  C81  1  0.55230000  0.89290000  0.72980000  1.0
  C  C82  1  0.63120000  0.82940000  0.75410000  1.0
  C  C83  1  0.73600000  0.83800000  0.76600000  1.0
  C  C84  1  0.53360000  0.99630000  0.70030000  1.0
  C  C85  1  0.98800000  0.27900000  0.71510000  1.0
  C  C86  1  0.86600000  0.34500000  0.75160000  1.0
  C  C87  1  0.94900000  0.41450000  0.76280000  1.0
  C  C88  1  0.96600000  0.51600000  0.78760000  1.0
  C  C89  1  0.77400000  0.34200000  0.77210000  1.0
  N  N90  1  0.46970000  0.66250000  0.23490000  1.0
  N  N91  1  0.59470000  0.76260000  0.27390000  1.0
  N  N92  1  0.89150000  0.23920000  0.22380000  1.0
  N  N93  1  0.01500000  0.13180000  0.23440000  1.0
  N  N94  1  0.53030000  0.16250000  0.26510000  1.0
  N  N95  1  0.40530000  0.26260000  0.22610000  1.0
  N  N96  1  0.10850000  0.73920000  0.27620000  1.0
  N  N97  1  0.98500000  0.63180000  0.26560000  1.0
  N  N98  1  0.53030000  0.33750000  0.76510000  1.0
  N  N99  1  0.40530000  0.23740000  0.72610000  1.0
  N  N100  1  0.10850000  0.76080000  0.77620000  1.0
  N  N101  1  0.98500000  0.86820000  0.76560000  1.0
  N  N102  1  0.46970000  0.83750000  0.73490000  1.0
  N  N103  1  0.59470000  0.73740000  0.77390000  1.0
  N  N104  1  0.89150000  0.26080000  0.72380000  1.0
  N  N105  1  0.01500000  0.36820000  0.73440000  1.0
  O  O106  1  0.40300000  0.52700000  0.45640000  1.0
  O  O107  1  0.50200000  0.61500000  0.48410000  1.0
  O  O108  1  0.50700000  0.42700000  0.44030000  1.0
  O  O109  1  0.59700000  0.53300000  0.47270000  1.0
  O  O110  1  0.25800000  0.43300000  0.39930000  1.0
  O  O111  1  0.27000000  0.35800000  0.51370000  1.0
  O  O112  1  0.26900000  0.53900000  0.55630000  1.0
  O  O113  1  0.25600000  0.62500000  0.44250000  1.0
  O  O114  1  0.29320000  0.78040000  0.37260000  1.0
  O  O115  1  0.48300000  0.72230000  0.39770000  1.0
  O  O116  1  0.35620000  0.57910000  0.35630000  1.0
  O  O117  1  0.40200000  0.31200000  0.39130000  1.0
  O  O118  1  0.60800000  0.24500000  0.51110000  1.0
  O  O119  1  0.41200000  0.23600000  0.49210000  1.0
  O  O120  1  0.33300000  0.20500000  0.59160000  1.0
  O  O121  1  0.36800000  0.40300000  0.62010000  1.0
  O  O122  1  0.31280000  0.56450000  0.67760000  1.0
  O  O123  1  0.50900000  0.53900000  0.65930000  1.0
  O  O124  1  0.39700000  0.68300000  0.59590000  1.0
  O  O125  1  0.30330000  0.41290000  0.28970000  1.0
  O  O126  1  0.44770000  0.47720000  0.18830000  1.0
  O  O127  1  0.60880000  0.45270000  0.19290000  1.0
  O  O128  1  0.79040000  0.73320000  0.29030000  1.0
  O  O129  1  0.78280000  0.58100000  0.25050000  1.0
  O  O130  1  0.72240000  0.24140000  0.26430000  1.0
  O  O131  1  0.73970000  0.08300000  0.29690000  1.0
  O  O132  1  0.05380000  0.95460000  0.29740000  1.0
  O  O133  1  0.89360000  0.93390000  0.30640000  1.0
  O  O134  1  0.59700000  0.02700000  0.04360000  1.0
  O  O135  1  0.49800000  0.11500000  0.01590000  1.0
  O  O136  1  0.49300000  0.92700000  0.05970000  1.0
  O  O137  1  0.40300000  0.03300000  0.02730000  1.0
  O  O138  1  0.74200000  0.93300000  0.10070000  1.0
  O  O139  1  0.73000000  0.85800000  0.98630000  1.0
  O  O140  1  0.73100000  0.03900000  0.94370000  1.0
  O  O141  1  0.74400000  0.12500000  0.05750000  1.0
  O  O142  1  0.70680000  0.28040000  0.12740000  1.0
  O  O143  1  0.51700000  0.22230000  0.10230000  1.0
  O  O144  1  0.64380000  0.07910000  0.14370000  1.0
  O  O145  1  0.59800000  0.81200000  0.10870000  1.0
  O  O146  1  0.39200000  0.74500000  0.98890000  1.0
  O  O147  1  0.58800000  0.73600000  0.00790000  1.0
  O  O148  1  0.66700000  0.70500000  0.90840000  1.0
  O  O149  1  0.63200000  0.90300000  0.87990000  1.0
  O  O150  1  0.68720000  0.06450000  0.82240000  1.0
  O  O151  1  0.49100000  0.03900000  0.84070000  1.0
  O  O152  1  0.60300000  0.18300000  0.90410000  1.0
  O  O153  1  0.69670000  0.91290000  0.21030000  1.0
  O  O154  1  0.55230000  0.97720000  0.31170000  1.0
  O  O155  1  0.39120000  0.95270000  0.30710000  1.0
  O  O156  1  0.20960000  0.23320000  0.20970000  1.0
  O  O157  1  0.21720000  0.08100000  0.24950000  1.0
  O  O158  1  0.27760000  0.74140000  0.23570000  1.0
  O  O159  1  0.26030000  0.58300000  0.20310000  1.0
  O  O160  1  0.94620000  0.45460000  0.20260000  1.0
  O  O161  1  0.10640000  0.43390000  0.19360000  1.0
  O  O162  1  0.59700000  0.47300000  0.54360000  1.0
  O  O163  1  0.49800000  0.38500000  0.51590000  1.0
  O  O164  1  0.49300000  0.57300000  0.55970000  1.0
  O  O165  1  0.40300000  0.46700000  0.52730000  1.0
  O  O166  1  0.74200000  0.56700000  0.60070000  1.0
  O  O167  1  0.73000000  0.64200000  0.48630000  1.0
  O  O168  1  0.73100000  0.46100000  0.44370000  1.0
  O  O169  1  0.74400000  0.37500000  0.55750000  1.0
  O  O170  1  0.70680000  0.21960000  0.62740000  1.0
  O  O171  1  0.51700000  0.27770000  0.60230000  1.0
  O  O172  1  0.64380000  0.42090000  0.64370000  1.0
  O  O173  1  0.59800000  0.68800000  0.60870000  1.0
  O  O174  1  0.39200000  0.75500000  0.48890000  1.0
  O  O175  1  0.58800000  0.76400000  0.50790000  1.0
  O  O176  1  0.66700000  0.79500000  0.40840000  1.0
  O  O177  1  0.63200000  0.59700000  0.37990000  1.0
  O  O178  1  0.68720000  0.43550000  0.32240000  1.0
  O  O179  1  0.49100000  0.46100000  0.34070000  1.0
  O  O180  1  0.60300000  0.31700000  0.40410000  1.0
  O  O181  1  0.69670000  0.58710000  0.71030000  1.0
  O  O182  1  0.55230000  0.52280000  0.81170000  1.0
  O  O183  1  0.39120000  0.54730000  0.80710000  1.0
  O  O184  1  0.20960000  0.26680000  0.70970000  1.0
  O  O185  1  0.21720000  0.41900000  0.74950000  1.0
  O  O186  1  0.27760000  0.75860000  0.73570000  1.0
  O  O187  1  0.26030000  0.91700000  0.70310000  1.0
  O  O188  1  0.94620000  0.04540000  0.70260000  1.0
  O  O189  1  0.10640000  0.06610000  0.69360000  1.0
  O  O190  1  0.40300000  0.97300000  0.95640000  1.0
  O  O191  1  0.50200000  0.88500000  0.98410000  1.0
  O  O192  1  0.50700000  0.07300000  0.94030000  1.0
  O  O193  1  0.59700000  0.96700000  0.97270000  1.0
  O  O194  1  0.25800000  0.06700000  0.89930000  1.0
  O  O195  1  0.27000000  0.14200000  0.01370000  1.0
  O  O196  1  0.26900000  0.96100000  0.05630000  1.0
  O  O197  1  0.25600000  0.87500000  0.94250000  1.0
  O  O198  1  0.29320000  0.71960000  0.87260000  1.0
  O  O199  1  0.48300000  0.77770000  0.89770000  1.0
  O  O200  1  0.35620000  0.92090000  0.85630000  1.0
  O  O201  1  0.40200000  0.18800000  0.89130000  1.0
  O  O202  1  0.60800000  0.25500000  0.01110000  1.0
  O  O203  1  0.41200000  0.26400000  0.99210000  1.0
  O  O204  1  0.33300000  0.29500000  0.09160000  1.0
  O  O205  1  0.36800000  0.09700000  0.12010000  1.0
  O  O206  1  0.31280000  0.93550000  0.17760000  1.0
  O  O207  1  0.50900000  0.96100000  0.15930000  1.0
  O  O208  1  0.39700000  0.81700000  0.09590000  1.0
  O  O209  1  0.30330000  0.08710000  0.78970000  1.0
  O  O210  1  0.44770000  0.02280000  0.68830000  1.0
  O  O211  1  0.60880000  0.04730000  0.69290000  1.0
  O  O212  1  0.79040000  0.76680000  0.79030000  1.0
  O  O213  1  0.78280000  0.91900000  0.75050000  1.0
  O  O214  1  0.72240000  0.25860000  0.76430000  1.0
  O  O215  1  0.73970000  0.41700000  0.79690000  1.0
  O  O216  1  0.05380000  0.54540000  0.79740000  1.0
  O  O217  1  0.89360000  0.56610000  0.80640000  1.0
