# generated using pymatgen
data_Ce4SiH8W12C20(NO7)8
_symmetry_space_group_name_H-M   'P 1'
_cell_length_a   13.15540000
_cell_length_b   13.70140000
_cell_length_c   22.72730000
_cell_angle_alpha   100.36600000
_cell_angle_beta   90.00000000
_cell_angle_gamma   90.00000000
_symmetry_Int_Tables_number   1
_chemical_formula_structural   Ce4SiH8W12C20(NO7)8
_chemical_formula_sum   'Ce8 Si2 H16 W24 C40 N16 O112'
_cell_volume   4029.67472682
_cell_formula_units_Z   2
loop_
 _symmetry_equiv_pos_site_id
 _symmetry_equiv_pos_as_xyz
  1  'x, y, z'
loop_
 _atom_site_type_symbol
 _atom_site_label
 _atom_site_symmetry_multiplicity
 _atom_site_fract_x
 _atom_site_fract_y
 _atom_site_fract_z
 _atom_site_occupancy
  Ce  Ce0  1  0.39899000  0.72393000  0.82147000  1.0
  Ce  Ce1  1  0.60101000  0.27607000  0.17853000  1.0
  Ce  Ce2  1  0.10085000  0.21878000  0.27619000  1.0
  Ce  Ce3  1  0.39915000  0.21878000  0.77619000  1.0
  Ce  Ce4  1  0.60085000  0.78122000  0.22381000  1.0
  Ce  Ce5  1  0.10101000  0.72393000  0.32147000  1.0
  Ce  Ce6  1  0.89915000  0.78122000  0.72381000  1.0
  Ce  Ce7  1  0.89899000  0.27607000  0.67853000  1.0
  Si  Si8  1  0.00000000  0.50000000  0.00000000  1.0
  Si  Si9  1  0.50000000  0.50000000  0.50000000  1.0
  H  H10  1  0.35550000  0.40850000  0.22090000  1.0
  H  H11  1  0.29930000  0.45730000  0.76860000  1.0
  H  H12  1  0.64450000  0.59150000  0.77910000  1.0
  H  H13  1  0.60440000  0.07250000  0.73410000  1.0
  H  H14  1  0.70070000  0.54270000  0.23140000  1.0
  H  H15  1  0.89560000  0.07250000  0.23410000  1.0
  H  H16  1  0.73390000  0.02280000  0.19690000  1.0
  H  H17  1  0.26610000  0.97720000  0.80310000  1.0
  H  H18  1  0.79930000  0.54270000  0.73140000  1.0
  H  H19  1  0.20070000  0.45730000  0.26860000  1.0
  H  H20  1  0.14450000  0.40850000  0.72090000  1.0
  H  H21  1  0.85550000  0.59150000  0.27910000  1.0
  H  H22  1  0.76610000  0.02280000  0.69690000  1.0
  H  H23  1  0.23390000  0.97720000  0.30310000  1.0
  H  H24  1  0.10440000  0.92750000  0.76590000  1.0
  H  H25  1  0.39560000  0.92750000  0.26590000  1.0
  W  W26  1  0.94137000  0.36792000  0.85785000  1.0
  W  W27  1  0.30098000  0.61763000  0.43764000  1.0
  W  W28  1  0.44137000  0.63208000  0.64215000  1.0
  W  W29  1  0.05863000  0.63208000  0.14215000  1.0
  W  W30  1  0.74799000  0.51000000  0.44262000  1.0
  W  W31  1  0.31079000  0.35508000  0.41311000  1.0
  W  W32  1  0.98805000  0.23819000  0.97605000  1.0
  W  W33  1  0.48805000  0.76181000  0.52395000  1.0
  W  W34  1  0.55863000  0.36792000  0.35785000  1.0
  W  W35  1  0.04855000  0.37065000  0.11991000  1.0
  W  W36  1  0.45145000  0.37065000  0.61991000  1.0
  W  W37  1  0.19902000  0.61763000  0.93764000  1.0
  W  W38  1  0.54855000  0.62935000  0.38009000  1.0
  W  W39  1  0.18921000  0.35508000  0.91311000  1.0
  W  W40  1  0.68921000  0.64492000  0.58689000  1.0
  W  W41  1  0.75201000  0.51000000  0.94262000  1.0
  W  W42  1  0.81079000  0.64492000  0.08689000  1.0
  W  W43  1  0.51195000  0.23819000  0.47605000  1.0
  W  W44  1  0.24799000  0.49000000  0.05738000  1.0
  W  W45  1  0.25201000  0.49000000  0.55738000  1.0
  W  W46  1  0.69902000  0.38237000  0.56236000  1.0
  W  W47  1  0.80098000  0.38237000  0.06236000  1.0
  W  W48  1  0.95145000  0.62935000  0.88009000  1.0
  W  W49  1  0.01195000  0.76181000  0.02395000  1.0
  C  C50  1  0.72110000  0.98490000  0.71490000  1.0
  C  C51  1  0.75120000  0.49990000  0.23990000  1.0
  C  C52  1  0.27890000  0.01510000  0.28510000  1.0
  C  C53  1  0.89530000  0.44570000  0.27020000  1.0
  C  C54  1  0.00010000  0.46510000  0.29710000  1.0
  C  C55  1  0.83910000  0.25900000  0.23430000  1.0
  C  C56  1  0.25120000  0.50010000  0.26010000  1.0
  C  C57  1  0.41430000  0.05640000  0.24180000  1.0
  C  C58  1  0.34310000  0.23040000  0.22880000  1.0
  C  C59  1  0.51810000  0.03710000  0.21230000  1.0
  C  C60  1  0.60470000  0.44570000  0.77020000  1.0
  C  C61  1  0.66560000  0.36800000  0.74700000  1.0
  C  C62  1  0.01810000  0.96290000  0.28770000  1.0
  C  C63  1  0.16090000  0.74100000  0.76570000  1.0
  C  C64  1  0.33440000  0.63200000  0.25300000  1.0
  C  C65  1  0.49990000  0.46510000  0.79710000  1.0
  C  C66  1  0.24880000  0.50010000  0.76010000  1.0
  C  C67  1  0.84610000  0.86710000  0.25250000  1.0
  C  C68  1  0.91430000  0.94360000  0.25820000  1.0
  C  C69  1  0.65390000  0.86710000  0.75250000  1.0
  C  C70  1  0.15390000  0.13290000  0.74750000  1.0
  C  C71  1  0.99990000  0.53490000  0.70290000  1.0
  C  C72  1  0.16560000  0.63200000  0.75300000  1.0
  C  C73  1  0.58570000  0.94360000  0.75820000  1.0
  C  C74  1  0.65690000  0.76960000  0.77120000  1.0
  C  C75  1  0.34610000  0.13290000  0.24750000  1.0
  C  C76  1  0.08570000  0.05640000  0.74180000  1.0
  C  C77  1  0.77890000  0.98490000  0.21490000  1.0
  C  C78  1  0.83440000  0.36800000  0.24700000  1.0
  C  C79  1  0.22110000  0.01510000  0.78510000  1.0
  C  C80  1  0.66090000  0.25900000  0.73430000  1.0
  C  C81  1  0.50010000  0.53490000  0.20290000  1.0
  C  C82  1  0.39530000  0.55430000  0.22980000  1.0
  C  C83  1  0.74880000  0.49990000  0.73990000  1.0
  C  C84  1  0.10470000  0.55430000  0.72980000  1.0
  C  C85  1  0.48190000  0.96290000  0.78770000  1.0
  C  C86  1  0.98190000  0.03710000  0.71230000  1.0
  C  C87  1  0.15690000  0.23040000  0.72880000  1.0
  C  C88  1  0.84310000  0.76960000  0.27120000  1.0
  C  C89  1  0.33910000  0.74100000  0.26570000  1.0
  N  N90  1  0.63040000  0.01530000  0.73540000  1.0
  N  N91  1  0.75660000  0.40360000  0.72680000  1.0
  N  N92  1  0.25660000  0.59640000  0.77320000  1.0
  N  N93  1  0.83790000  0.53090000  0.26650000  1.0
  N  N94  1  0.26000000  0.10770000  0.27660000  1.0
  N  N95  1  0.24340000  0.59640000  0.27320000  1.0
  N  N96  1  0.16210000  0.46910000  0.73350000  1.0
  N  N97  1  0.74000000  0.89230000  0.72340000  1.0
  N  N98  1  0.36960000  0.98470000  0.26460000  1.0
  N  N99  1  0.13040000  0.98470000  0.76460000  1.0
  N  N100  1  0.66210000  0.53090000  0.76650000  1.0
  N  N101  1  0.24000000  0.10770000  0.77660000  1.0
  N  N102  1  0.76000000  0.89230000  0.22340000  1.0
  N  N103  1  0.33790000  0.46910000  0.23350000  1.0
  N  N104  1  0.86960000  0.01530000  0.23540000  1.0
  N  N105  1  0.74340000  0.40360000  0.22680000  1.0
  O  O106  1  0.91230000  0.30080000  0.78890000  1.0
  O  O107  1  0.70120000  0.33180000  0.09480000  1.0
  O  O108  1  0.24400000  0.38840000  0.48760000  1.0
  O  O109  1  0.54150000  0.49520000  0.34240000  1.0
  O  O110  1  0.74050000  0.72370000  0.76380000  1.0
  O  O111  1  0.11440000  0.49760000  0.98080000  1.0
  O  O112  1  0.71990000  0.71090000  0.13060000  1.0
  O  O113  1  0.44930000  0.39050000  0.80520000  1.0
  O  O114  1  0.62300000  0.75300000  0.55680000  1.0
  O  O115  1  0.08220000  0.26550000  0.70610000  1.0
  O  O116  1  0.28010000  0.28910000  0.86940000  1.0
  O  O117  1  0.95850000  0.49520000  0.84240000  1.0
  O  O118  1  0.28140000  0.48400000  0.40180000  1.0
  O  O119  1  0.46500000  0.59600000  0.47200000  1.0
  O  O120  1  0.08200000  0.35650000  0.85780000  1.0
  O  O121  1  0.24050000  0.27630000  0.73620000  1.0
  O  O122  1  0.42960000  0.31130000  0.67720000  1.0
  O  O123  1  0.41230000  0.69920000  0.71110000  1.0
  O  O124  1  0.58220000  0.73450000  0.79390000  1.0
  O  O125  1  0.43600000  0.74480000  0.60140000  1.0
  O  O126  1  0.92220000  0.21700000  0.24820000  1.0
  O  O127  1  0.08770000  0.69920000  0.21110000  1.0
  O  O128  1  0.02820000  0.55140000  0.31130000  1.0
  O  O129  1  0.58200000  0.64350000  0.64220000  1.0
  O  O130  1  0.78140000  0.51600000  0.09820000  1.0
  O  O131  1  0.71860000  0.51600000  0.59820000  1.0
  O  O132  1  0.52700000  0.60500000  0.54660000  1.0
  O  O133  1  0.07040000  0.31130000  0.17720000  1.0
  O  O134  1  0.90620000  0.37320000  0.11670000  1.0
  O  O135  1  0.75950000  0.72370000  0.26380000  1.0
  O  O136  1  0.04150000  0.50480000  0.15760000  1.0
  O  O137  1  0.56400000  0.25520000  0.39860000  1.0
  O  O138  1  0.88560000  0.50240000  0.01920000  1.0
  O  O139  1  0.58770000  0.30080000  0.28890000  1.0
  O  O140  1  0.68300000  0.60400000  0.40240000  1.0
  O  O141  1  0.18400000  0.59400000  0.10860000  1.0
  O  O142  1  0.81600000  0.40600000  0.89140000  1.0
  O  O143  1  0.18300000  0.39600000  0.09760000  1.0
  O  O144  1  0.96500000  0.40400000  0.02800000  1.0
  O  O145  1  0.29880000  0.66820000  0.90520000  1.0
  O  O146  1  0.97300000  0.60500000  0.04660000  1.0
  O  O147  1  0.20120000  0.66820000  0.40520000  1.0
  O  O148  1  0.42220000  0.78300000  0.25180000  1.0
  O  O149  1  0.74400000  0.61160000  0.01240000  1.0
  O  O150  1  0.53500000  0.40400000  0.52800000  1.0
  O  O151  1  0.95270000  0.94830000  0.70510000  1.0
  O  O152  1  0.04730000  0.05170000  0.29490000  1.0
  O  O153  1  0.95400000  0.73100000  0.94750000  1.0
  O  O154  1  0.07780000  0.78300000  0.75180000  1.0
  O  O155  1  0.23500000  0.58530000  0.50550000  1.0
  O  O156  1  0.87700000  0.75300000  0.05680000  1.0
  O  O157  1  0.47300000  0.39500000  0.45340000  1.0
  O  O158  1  0.85800000  0.27160000  0.01290000  1.0
  O  O159  1  0.56630000  0.10780000  0.19900000  1.0
  O  O160  1  0.57040000  0.68870000  0.32280000  1.0
  O  O161  1  0.81700000  0.60400000  0.90240000  1.0
  O  O162  1  0.55070000  0.60950000  0.19480000  1.0
  O  O163  1  0.52820000  0.44860000  0.18870000  1.0
  O  O164  1  0.45400000  0.26900000  0.55250000  1.0
  O  O165  1  0.75600000  0.61160000  0.51240000  1.0
  O  O166  1  0.91780000  0.73450000  0.29390000  1.0
  O  O167  1  0.09380000  0.62680000  0.88330000  1.0
  O  O168  1  0.07000000  0.49480000  0.06050000  1.0
  O  O169  1  0.14200000  0.72840000  0.98710000  1.0
  O  O170  1  0.76500000  0.41470000  0.49450000  1.0
  O  O171  1  0.23230000  0.79100000  0.78960000  1.0
  O  O172  1  0.05070000  0.39050000  0.30520000  1.0
  O  O173  1  0.04600000  0.26900000  0.05250000  1.0
  O  O174  1  0.54730000  0.94830000  0.20510000  1.0
  O  O175  1  0.25950000  0.27630000  0.23620000  1.0
  O  O176  1  0.68400000  0.40600000  0.39140000  1.0
  O  O177  1  0.06400000  0.74480000  0.10140000  1.0
  O  O178  1  0.26770000  0.79100000  0.28960000  1.0
  O  O179  1  0.93600000  0.25520000  0.89860000  1.0
  O  O180  1  0.73500000  0.41470000  0.99450000  1.0
  O  O181  1  0.21860000  0.48400000  0.90180000  1.0
  O  O182  1  0.38560000  0.49760000  0.48080000  1.0
  O  O183  1  0.79880000  0.33180000  0.59480000  1.0
  O  O184  1  0.25600000  0.38840000  0.98760000  1.0
  O  O185  1  0.92960000  0.68870000  0.82280000  1.0
  O  O186  1  0.26500000  0.58530000  0.00550000  1.0
  O  O187  1  0.45850000  0.50480000  0.65760000  1.0
  O  O188  1  0.41780000  0.26550000  0.20610000  1.0
  O  O189  1  0.03500000  0.59600000  0.97200000  1.0
  O  O190  1  0.12300000  0.24700000  0.94320000  1.0
  O  O191  1  0.31600000  0.59400000  0.60860000  1.0
  O  O192  1  0.43000000  0.49480000  0.56050000  1.0
  O  O193  1  0.94930000  0.60950000  0.69480000  1.0
  O  O194  1  0.93000000  0.50520000  0.93950000  1.0
  O  O195  1  0.41800000  0.35650000  0.35780000  1.0
  O  O196  1  0.40620000  0.62680000  0.38330000  1.0
  O  O197  1  0.64200000  0.27160000  0.51290000  1.0
  O  O198  1  0.93370000  0.10780000  0.69900000  1.0
  O  O199  1  0.59380000  0.37320000  0.61670000  1.0
  O  O200  1  0.57780000  0.21700000  0.74820000  1.0
  O  O201  1  0.31700000  0.39600000  0.59760000  1.0
  O  O202  1  0.43370000  0.89220000  0.80100000  1.0
  O  O203  1  0.37700000  0.24700000  0.44320000  1.0
  O  O204  1  0.76770000  0.20900000  0.21040000  1.0
  O  O205  1  0.91800000  0.64350000  0.14220000  1.0
  O  O206  1  0.97180000  0.44860000  0.68870000  1.0
  O  O207  1  0.35800000  0.72840000  0.48710000  1.0
  O  O208  1  0.06630000  0.89220000  0.30100000  1.0
  O  O209  1  0.78010000  0.71090000  0.63060000  1.0
  O  O210  1  0.54600000  0.73100000  0.44750000  1.0
  O  O211  1  0.47180000  0.55140000  0.81130000  1.0
  O  O212  1  0.57000000  0.50520000  0.43950000  1.0
  O  O213  1  0.73230000  0.20900000  0.71040000  1.0
  O  O214  1  0.21990000  0.28910000  0.36940000  1.0
  O  O215  1  0.02700000  0.39500000  0.95340000  1.0
  O  O216  1  0.61440000  0.50240000  0.51920000  1.0
  O  O217  1  0.45270000  0.05170000  0.79490000  1.0
