# generated using pymatgen
data_TbH4C8NO7
_symmetry_space_group_name_H-M   'P 1'
_cell_length_a   10.54540000
_cell_length_b   17.59860000
_cell_length_c   19.99640000
_cell_angle_alpha   90.00000000
_cell_angle_beta   90.00000000
_cell_angle_gamma   91.28300000
_symmetry_Int_Tables_number   1
_chemical_formula_structural   TbH4C8NO7
_chemical_formula_sum   'Tb8 H32 C64 N8 O56'
_cell_volume   3710.08706140
_cell_formula_units_Z   8
loop_
 _symmetry_equiv_pos_site_id
 _symmetry_equiv_pos_as_xyz
  1  'x, y, z'
loop_
 _atom_site_type_symbol
 _atom_site_label
 _atom_site_symmetry_multiplicity
 _atom_site_fract_x
 _atom_site_fract_y
 _atom_site_fract_z
 _atom_site_occupancy
  Tb  Tb0  1  0.32093000  0.99996000  0.26530000  1.0
  Tb  Tb1  1  0.25344000  0.49220000  0.01836000  1.0
  Tb  Tb2  1  0.17907000  0.00004000  0.76530000  1.0
  Tb  Tb3  1  0.24656000  0.50780000  0.51836000  1.0
  Tb  Tb4  1  0.67907000  0.00004000  0.73470000  1.0
  Tb  Tb5  1  0.74656000  0.50780000  0.98164000  1.0
  Tb  Tb6  1  0.82093000  0.99996000  0.23470000  1.0
  Tb  Tb7  1  0.75344000  0.49220000  0.48164000  1.0
  H  H8  1  0.36020000  0.20140000  0.17470000  1.0
  H  H9  1  0.34420000  0.30100000  0.10330000  1.0
  H  H10  1  0.71370000  0.28340000  0.05300000  1.0
  H  H11  1  0.72640000  0.17770000  0.12100000  1.0
  H  H12  1  0.21180000  0.67030000  0.10090000  1.0
  H  H13  1  0.24320000  0.78680000  0.15670000  1.0
  H  H14  1  0.86640000  0.81440000  0.17060000  1.0
  H  H15  1  0.83240000  0.70400000  0.10880000  1.0
  H  H16  1  0.13980000  0.79860000  0.67470000  1.0
  H  H17  1  0.15580000  0.69900000  0.60330000  1.0
  H  H18  1  0.78630000  0.71660000  0.55300000  1.0
  H  H19  1  0.77360000  0.82230000  0.62100000  1.0
  H  H20  1  0.28820000  0.32970000  0.60090000  1.0
  H  H21  1  0.25680000  0.21320000  0.65670000  1.0
  H  H22  1  0.63360000  0.18560000  0.67060000  1.0
  H  H23  1  0.66760000  0.29600000  0.60880000  1.0
  H  H24  1  0.63980000  0.79860000  0.82530000  1.0
  H  H25  1  0.65580000  0.69900000  0.89670000  1.0
  H  H26  1  0.28630000  0.71660000  0.94700000  1.0
  H  H27  1  0.27360000  0.82230000  0.87900000  1.0
  H  H28  1  0.78820000  0.32970000  0.89910000  1.0
  H  H29  1  0.75680000  0.21320000  0.84330000  1.0
  H  H30  1  0.13360000  0.18560000  0.82940000  1.0
  H  H31  1  0.16760000  0.29600000  0.89120000  1.0
  H  H32  1  0.86020000  0.20140000  0.32530000  1.0
  H  H33  1  0.84420000  0.30100000  0.39670000  1.0
  H  H34  1  0.21370000  0.28340000  0.44700000  1.0
  H  H35  1  0.22640000  0.17770000  0.37900000  1.0
  H  H36  1  0.71180000  0.67030000  0.39910000  1.0
  H  H37  1  0.74320000  0.78680000  0.34330000  1.0
  H  H38  1  0.36640000  0.81440000  0.32940000  1.0
  H  H39  1  0.33240000  0.70400000  0.39120000  1.0
  C  C40  1  0.55870000  0.11460000  0.20160000  1.0
  C  C41  1  0.54520000  0.18010000  0.15540000  1.0
  C  C42  1  0.43210000  0.21800000  0.14950000  1.0
  C  C43  1  0.42350000  0.27710000  0.10880000  1.0
  C  C44  1  0.53040000  0.30530000  0.07360000  1.0
  C  C45  1  0.64180000  0.26670000  0.07800000  1.0
  C  C46  1  0.64950000  0.20450000  0.11840000  1.0
  C  C47  1  0.51910000  0.37680000  0.03250000  1.0
  C  C48  1  0.99710000  0.60580000  0.05440000  1.0
  C  C49  1  0.01900000  0.67790000  0.09700000  1.0
  C  C50  1  0.14200000  0.70030000  0.11300000  1.0
  C  C51  1  0.15900000  0.76880000  0.14760000  1.0
  C  C52  1  0.06000000  0.81020000  0.16850000  1.0
  C  C53  1  0.93620000  0.78600000  0.15510000  1.0
  C  C54  1  0.91660000  0.72060000  0.11900000  1.0
  C  C55  1  0.08400000  0.88700000  0.20370000  1.0
  C  C56  1  0.94130000  0.88540000  0.70160000  1.0
  C  C57  1  0.95480000  0.81990000  0.65540000  1.0
  C  C58  1  0.06790000  0.78200000  0.64950000  1.0
  C  C59  1  0.07650000  0.72290000  0.60880000  1.0
  C  C60  1  0.96960000  0.69470000  0.57360000  1.0
  C  C61  1  0.85820000  0.73330000  0.57800000  1.0
  C  C62  1  0.85050000  0.79550000  0.61840000  1.0
  C  C63  1  0.98090000  0.62320000  0.53250000  1.0
  C  C64  1  0.50290000  0.39420000  0.55440000  1.0
  C  C65  1  0.48100000  0.32210000  0.59700000  1.0
  C  C66  1  0.35800000  0.29970000  0.61300000  1.0
  C  C67  1  0.34100000  0.23120000  0.64760000  1.0
  C  C68  1  0.44000000  0.18980000  0.66850000  1.0
  C  C69  1  0.56380000  0.21400000  0.65510000  1.0
  C  C70  1  0.58340000  0.27940000  0.61900000  1.0
  C  C71  1  0.41600000  0.11300000  0.70370000  1.0
  C  C72  1  0.44130000  0.88540000  0.79840000  1.0
  C  C73  1  0.45480000  0.81990000  0.84460000  1.0
  C  C74  1  0.56790000  0.78200000  0.85050000  1.0
  C  C75  1  0.57650000  0.72290000  0.89120000  1.0
  C  C76  1  0.46960000  0.69470000  0.92640000  1.0
  C  C77  1  0.35820000  0.73330000  0.92200000  1.0
  C  C78  1  0.35050000  0.79550000  0.88160000  1.0
  C  C79  1  0.48090000  0.62320000  0.96750000  1.0
  C  C80  1  0.00290000  0.39420000  0.94560000  1.0
  C  C81  1  0.98100000  0.32210000  0.90300000  1.0
  C  C82  1  0.85800000  0.29970000  0.88700000  1.0
  C  C83  1  0.84100000  0.23120000  0.85240000  1.0
  C  C84  1  0.94000000  0.18980000  0.83150000  1.0
  C  C85  1  0.06380000  0.21400000  0.84490000  1.0
  C  C86  1  0.08340000  0.27940000  0.88100000  1.0
  C  C87  1  0.91600000  0.11300000  0.79630000  1.0
  C  C88  1  0.05870000  0.11460000  0.29840000  1.0
  C  C89  1  0.04520000  0.18010000  0.34460000  1.0
  C  C90  1  0.93210000  0.21800000  0.35050000  1.0
  C  C91  1  0.92350000  0.27710000  0.39120000  1.0
  C  C92  1  0.03040000  0.30530000  0.42640000  1.0
  C  C93  1  0.14180000  0.26670000  0.42200000  1.0
  C  C94  1  0.14950000  0.20450000  0.38160000  1.0
  C  C95  1  0.01910000  0.37680000  0.46750000  1.0
  C  C96  1  0.49710000  0.60580000  0.44560000  1.0
  C  C97  1  0.51900000  0.67790000  0.40300000  1.0
  C  C98  1  0.64200000  0.70030000  0.38700000  1.0
  C  C99  1  0.65900000  0.76880000  0.35240000  1.0
  C  C100  1  0.56000000  0.81020000  0.33150000  1.0
  C  C101  1  0.43620000  0.78600000  0.34490000  1.0
  C  C102  1  0.41660000  0.72060000  0.38100000  1.0
  C  C103  1  0.58400000  0.88700000  0.29630000  1.0
  N  N104  1  0.31000000  0.02310000  0.12180000  1.0
  N  N105  1  0.26100000  0.52280000  0.87760000  1.0
  N  N106  1  0.19000000  0.97690000  0.62180000  1.0
  N  N107  1  0.23900000  0.47720000  0.37760000  1.0
  N  N108  1  0.69000000  0.97690000  0.87820000  1.0
  N  N109  1  0.73900000  0.47720000  0.12240000  1.0
  N  N110  1  0.81000000  0.02310000  0.37820000  1.0
  N  N111  1  0.76100000  0.52280000  0.62240000  1.0
  O  O112  1  0.39400000  0.98480000  0.14580000  1.0
  O  O113  1  0.24110000  0.05930000  0.16260000  1.0
  O  O114  1  0.29530000  0.02980000  0.06020000  1.0
  O  O115  1  0.46810000  0.09800000  0.24250000  1.0
  O  O116  1  0.66250000  0.07800000  0.20280000  1.0
  O  O117  1  0.41450000  0.40940000  0.02900000  1.0
  O  O118  1  0.61810000  0.40050000  0.00150000  1.0
  O  O119  1  0.33550000  0.47810000  0.90010000  1.0
  O  O120  1  0.17890000  0.55230000  0.91280000  1.0
  O  O121  1  0.26800000  0.54270000  0.81670000  1.0
  O  O122  1  0.88560000  0.59560000  0.03290000  1.0
  O  O123  1  0.08620000  0.56290000  0.04740000  1.0
  O  O124  1  0.98800000  0.92040000  0.22500000  1.0
  O  O125  1  0.19480000  0.90850000  0.21150000  1.0
  O  O126  1  0.10600000  0.01520000  0.64580000  1.0
  O  O127  1  0.25890000  0.94070000  0.66260000  1.0
  O  O128  1  0.20470000  0.97020000  0.56020000  1.0
  O  O129  1  0.03190000  0.90200000  0.74250000  1.0
  O  O130  1  0.83750000  0.92200000  0.70280000  1.0
  O  O131  1  0.08550000  0.59060000  0.52900000  1.0
  O  O132  1  0.88190000  0.59950000  0.50150000  1.0
  O  O133  1  0.16450000  0.52190000  0.40010000  1.0
  O  O134  1  0.32110000  0.44770000  0.41280000  1.0
  O  O135  1  0.23200000  0.45730000  0.31670000  1.0
  O  O136  1  0.61440000  0.40440000  0.53290000  1.0
  O  O137  1  0.41380000  0.43710000  0.54740000  1.0
  O  O138  1  0.51200000  0.07960000  0.72500000  1.0
  O  O139  1  0.30520000  0.09150000  0.71150000  1.0
  O  O140  1  0.60600000  0.01520000  0.85420000  1.0
  O  O141  1  0.75890000  0.94070000  0.83740000  1.0
  O  O142  1  0.70470000  0.97020000  0.93980000  1.0
  O  O143  1  0.53190000  0.90200000  0.75750000  1.0
  O  O144  1  0.33750000  0.92200000  0.79720000  1.0
  O  O145  1  0.58550000  0.59060000  0.97100000  1.0
  O  O146  1  0.38190000  0.59950000  0.99850000  1.0
  O  O147  1  0.66450000  0.52190000  0.09990000  1.0
  O  O148  1  0.82110000  0.44770000  0.08720000  1.0
  O  O149  1  0.73200000  0.45730000  0.18330000  1.0
  O  O150  1  0.11440000  0.40440000  0.96710000  1.0
  O  O151  1  0.91380000  0.43710000  0.95260000  1.0
  O  O152  1  0.01200000  0.07960000  0.77500000  1.0
  O  O153  1  0.80520000  0.09150000  0.78850000  1.0
  O  O154  1  0.89400000  0.98480000  0.35420000  1.0
  O  O155  1  0.74110000  0.05930000  0.33740000  1.0
  O  O156  1  0.79530000  0.02980000  0.43980000  1.0
  O  O157  1  0.96810000  0.09800000  0.25750000  1.0
  O  O158  1  0.16250000  0.07800000  0.29720000  1.0
  O  O159  1  0.91450000  0.40940000  0.47100000  1.0
  O  O160  1  0.11810000  0.40050000  0.49850000  1.0
  O  O161  1  0.83550000  0.47810000  0.59990000  1.0
  O  O162  1  0.67890000  0.55230000  0.58720000  1.0
  O  O163  1  0.76800000  0.54270000  0.68330000  1.0
  O  O164  1  0.38560000  0.59560000  0.46710000  1.0
  O  O165  1  0.58620000  0.56290000  0.45260000  1.0
  O  O166  1  0.48800000  0.92040000  0.27500000  1.0
  O  O167  1  0.69480000  0.90850000  0.28850000  1.0
