# generated using pymatgen
data_Zr3H8(C3O4)4
_symmetry_space_group_name_H-M   'P 1'
_cell_length_a   17.93090000
_cell_length_b   17.93090000
_cell_length_c   17.93090000
_cell_angle_alpha   90.00000000
_cell_angle_beta   90.00000000
_cell_angle_gamma   90.00000000
_symmetry_Int_Tables_number   1
_chemical_formula_structural   Zr3H8(C3O4)4
_chemical_formula_sum   'Zr24 H64 C96 O128'
_cell_volume   5765.09230980
_cell_formula_units_Z   8
loop_
 _symmetry_equiv_pos_site_id
 _symmetry_equiv_pos_as_xyz
  1  'x, y, z'
loop_
 _atom_site_type_symbol
 _atom_site_label
 _atom_site_symmetry_multiplicity
 _atom_site_fract_x
 _atom_site_fract_y
 _atom_site_fract_z
 _atom_site_occupancy
  Zr  Zr0  1  0.99172000  0.13265000  0.99152000  1.0
  Zr  Zr1  1  0.13265000  0.00848000  0.00828000  1.0
  Zr  Zr2  1  0.86745000  0.99091000  0.99110000  1.0
  Zr  Zr3  1  0.99091000  0.00890000  0.13255000  1.0
  Zr  Zr4  1  0.00848000  0.99172000  0.86735000  1.0
  Zr  Zr5  1  0.00890000  0.86745000  0.00909000  1.0
  Zr  Zr6  1  0.49172000  0.63265000  0.99152000  1.0
  Zr  Zr7  1  0.63265000  0.50848000  0.00828000  1.0
  Zr  Zr8  1  0.36745000  0.49091000  0.99110000  1.0
  Zr  Zr9  1  0.49091000  0.50890000  0.13255000  1.0
  Zr  Zr10  1  0.50848000  0.49172000  0.86735000  1.0
  Zr  Zr11  1  0.50890000  0.36745000  0.00909000  1.0
  Zr  Zr12  1  0.99172000  0.63265000  0.49152000  1.0
  Zr  Zr13  1  0.13265000  0.50848000  0.50828000  1.0
  Zr  Zr14  1  0.86745000  0.49091000  0.49110000  1.0
  Zr  Zr15  1  0.99091000  0.50890000  0.63255000  1.0
  Zr  Zr16  1  0.00848000  0.49172000  0.36735000  1.0
  Zr  Zr17  1  0.00890000  0.36745000  0.50909000  1.0
  Zr  Zr18  1  0.49172000  0.13265000  0.49152000  1.0
  Zr  Zr19  1  0.63265000  0.00848000  0.50828000  1.0
  Zr  Zr20  1  0.36745000  0.99091000  0.49110000  1.0
  Zr  Zr21  1  0.49091000  0.00890000  0.63255000  1.0
  Zr  Zr22  1  0.50848000  0.99172000  0.36735000  1.0
  Zr  Zr23  1  0.50890000  0.86745000  0.50909000  1.0
  H  H24  1  0.08856000  0.10952000  0.09840000  1.0
  H  H25  1  0.90160000  0.08856000  0.89049000  1.0
  H  H26  1  0.90118000  0.90118000  0.09882000  1.0
  H  H27  1  0.10951000  0.90160000  0.91144000  1.0
  H  H28  1  0.58856000  0.60952000  0.09840000  1.0
  H  H29  1  0.40160000  0.58856000  0.89049000  1.0
  H  H30  1  0.40118000  0.40118000  0.09882000  1.0
  H  H31  1  0.60951000  0.40160000  0.91144000  1.0
  H  H32  1  0.08856000  0.60951000  0.59840000  1.0
  H  H33  1  0.90160000  0.58856000  0.39049000  1.0
  H  H34  1  0.90118000  0.40118000  0.59882000  1.0
  H  H35  1  0.10952000  0.40160000  0.41144000  1.0
  H  H36  1  0.58856000  0.10951000  0.59840000  1.0
  H  H37  1  0.40160000  0.08856000  0.39049000  1.0
  H  H38  1  0.40118000  0.90118000  0.59882000  1.0
  H  H39  1  0.60952000  0.90160000  0.41144000  1.0
  H  H40  1  0.18715000  0.30465000  0.98817000  1.0
  H  H41  1  0.31448000  0.19397000  0.00516000  1.0
  H  H42  1  0.18715000  0.80465000  0.48818000  1.0
  H  H43  1  0.31448000  0.69397000  0.50516000  1.0
  H  H44  1  0.81448000  0.69397000  0.00516000  1.0
  H  H45  1  0.68715000  0.80465000  0.98817000  1.0
  H  H46  1  0.81448000  0.19397000  0.50516000  1.0
  H  H47  1  0.68715000  0.30465000  0.48818000  1.0
  H  H48  1  0.69484000  0.18716000  0.98910000  1.0
  H  H49  1  0.80563000  0.31231000  0.01804000  1.0
  H  H50  1  0.69484000  0.68716000  0.48910000  1.0
  H  H51  1  0.80563000  0.81231000  0.51804000  1.0
  H  H52  1  0.30563000  0.31231000  0.51804000  1.0
  H  H53  1  0.19484000  0.18716000  0.48910000  1.0
  H  H54  1  0.30563000  0.81231000  0.01804000  1.0
  H  H55  1  0.19484000  0.68716000  0.98910000  1.0
  H  H56  1  0.98196000  0.30563000  0.18769000  1.0
  H  H57  1  0.01090000  0.19484000  0.31284000  1.0
  H  H58  1  0.51090000  0.19484000  0.81284000  1.0
  H  H59  1  0.48196000  0.30563000  0.68769000  1.0
  H  H60  1  0.01090000  0.69484000  0.81284000  1.0
  H  H61  1  0.98196000  0.80563000  0.68769000  1.0
  H  H62  1  0.48196000  0.80563000  0.18769000  1.0
  H  H63  1  0.51090000  0.69484000  0.31284000  1.0
  H  H64  1  0.99484000  0.81448000  0.30603000  1.0
  H  H65  1  0.01183000  0.68715000  0.19535000  1.0
  H  H66  1  0.51182000  0.68715000  0.69535000  1.0
  H  H67  1  0.49484000  0.81448000  0.80603000  1.0
  H  H68  1  0.49484000  0.31448000  0.30603000  1.0
  H  H69  1  0.51183000  0.18715000  0.19535000  1.0
  H  H70  1  0.01182000  0.18715000  0.69535000  1.0
  H  H71  1  0.99484000  0.31448000  0.80603000  1.0
  H  H72  1  0.18716000  0.01090000  0.30516000  1.0
  H  H73  1  0.31231000  0.98196000  0.19437000  1.0
  H  H74  1  0.31231000  0.48196000  0.69437000  1.0
  H  H75  1  0.18716000  0.51090000  0.80516000  1.0
  H  H76  1  0.81231000  0.98196000  0.69437000  1.0
  H  H77  1  0.68716000  0.01090000  0.80516000  1.0
  H  H78  1  0.68716000  0.51090000  0.30516000  1.0
  H  H79  1  0.81231000  0.48196000  0.19437000  1.0
  H  H80  1  0.30465000  0.01182000  0.81285000  1.0
  H  H81  1  0.19397000  0.99484000  0.68552000  1.0
  H  H82  1  0.19397000  0.49484000  0.18552000  1.0
  H  H83  1  0.30465000  0.51182000  0.31285000  1.0
  H  H84  1  0.69397000  0.99484000  0.18552000  1.0
  H  H85  1  0.80465000  0.01182000  0.31285000  1.0
  H  H86  1  0.80465000  0.51182000  0.81285000  1.0
  H  H87  1  0.69397000  0.49484000  0.68552000  1.0
  C  C88  1  0.81613000  0.16027000  0.99248000  1.0
  C  C89  1  0.16093000  0.18355000  0.99616000  1.0
  C  C90  1  0.98680000  0.18435000  0.16075000  1.0
  C  C91  1  0.00384000  0.16093000  0.81645000  1.0
  C  C92  1  0.18435000  0.83925000  0.01320000  1.0
  C  C93  1  0.84046000  0.81525000  0.99858000  1.0
  C  C94  1  0.16027000  0.00752000  0.18387000  1.0
  C  C95  1  0.18355000  0.00384000  0.83907000  1.0
  C  C96  1  0.83925000  0.98680000  0.81565000  1.0
  C  C97  1  0.81525000  0.00142000  0.15954000  1.0
  C  C98  1  0.00142000  0.84046000  0.18476000  1.0
  C  C99  1  0.00752000  0.81613000  0.83973000  1.0
  C  C100  1  0.31613000  0.66027000  0.99248000  1.0
  C  C101  1  0.66093000  0.68355000  0.99616000  1.0
  C  C102  1  0.48680000  0.68435000  0.16075000  1.0
  C  C103  1  0.50384000  0.66093000  0.81645000  1.0
  C  C104  1  0.68435000  0.33925000  0.01320000  1.0
  C  C105  1  0.34046000  0.31525000  0.99858000  1.0
  C  C106  1  0.66027000  0.50752000  0.18387000  1.0
  C  C107  1  0.68355000  0.50384000  0.83907000  1.0
  C  C108  1  0.33925000  0.48680000  0.81565000  1.0
  C  C109  1  0.31525000  0.50142000  0.15954000  1.0
  C  C110  1  0.50142000  0.34046000  0.18476000  1.0
  C  C111  1  0.50752000  0.31613000  0.83973000  1.0
  C  C112  1  0.81613000  0.66027000  0.49248000  1.0
  C  C113  1  0.16093000  0.68355000  0.49616000  1.0
  C  C114  1  0.98680000  0.68435000  0.66075000  1.0
  C  C115  1  0.00384000  0.66093000  0.31645000  1.0
  C  C116  1  0.18435000  0.33925000  0.51320000  1.0
  C  C117  1  0.84046000  0.31525000  0.49858000  1.0
  C  C118  1  0.16027000  0.50752000  0.68387000  1.0
  C  C119  1  0.18355000  0.50384000  0.33907000  1.0
  C  C120  1  0.83925000  0.48680000  0.31565000  1.0
  C  C121  1  0.81524000  0.50142000  0.65954000  1.0
  C  C122  1  0.00142000  0.34046000  0.68475000  1.0
  C  C123  1  0.00752000  0.31613000  0.33973000  1.0
  C  C124  1  0.31613000  0.16027000  0.49248000  1.0
  C  C125  1  0.66093000  0.18355000  0.49616000  1.0
  C  C126  1  0.48680000  0.18435000  0.66075000  1.0
  C  C127  1  0.50384000  0.16093000  0.31645000  1.0
  C  C128  1  0.68435000  0.83925000  0.51320000  1.0
  C  C129  1  0.34046000  0.81525000  0.49858000  1.0
  C  C130  1  0.66027000  0.00752000  0.68387000  1.0
  C  C131  1  0.68355000  0.00384000  0.33907000  1.0
  C  C132  1  0.33925000  0.98680000  0.31565000  1.0
  C  C133  1  0.31524000  0.00142000  0.65954000  1.0
  C  C134  1  0.50142000  0.84046000  0.68475000  1.0
  C  C135  1  0.50752000  0.81613000  0.33973000  1.0
  C  C136  1  0.21311000  0.25041000  0.99400000  1.0
  C  C137  1  0.28849000  0.24818000  0.99924000  1.0
  C  C138  1  0.21311000  0.75041000  0.49400000  1.0
  C  C139  1  0.28849000  0.74818000  0.49924000  1.0
  C  C140  1  0.78849000  0.74818000  0.99924000  1.0
  C  C141  1  0.71311000  0.75041000  0.99400000  1.0
  C  C142  1  0.78849000  0.24818000  0.49924000  1.0
  C  C143  1  0.71311000  0.25041000  0.49400000  1.0
  C  C144  1  0.74916000  0.21249000  0.99663000  1.0
  C  C145  1  0.75132000  0.28693000  0.01060000  1.0
  C  C146  1  0.74916000  0.71249000  0.49663000  1.0
  C  C147  1  0.75132000  0.78693000  0.51060000  1.0
  C  C148  1  0.25132000  0.28693000  0.51060000  1.0
  C  C149  1  0.24916000  0.21249000  0.49663000  1.0
  C  C150  1  0.25132000  0.78693000  0.01060000  1.0
  C  C151  1  0.24916000  0.71249000  0.99663000  1.0
  C  C152  1  0.98940000  0.25132000  0.21307000  1.0
  C  C153  1  0.00337000  0.24916000  0.28751000  1.0
  C  C154  1  0.50337000  0.24916000  0.78751000  1.0
  C  C155  1  0.48940000  0.25132000  0.71307000  1.0
  C  C156  1  0.00337000  0.74916000  0.78751000  1.0
  C  C157  1  0.98940000  0.75132000  0.71307000  1.0
  C  C158  1  0.48940000  0.75132000  0.21307000  1.0
  C  C159  1  0.50337000  0.74916000  0.28751000  1.0
  C  C160  1  0.00076000  0.78849000  0.25182000  1.0
  C  C161  1  0.00600000  0.71311000  0.24959000  1.0
  C  C162  1  0.50600000  0.71311000  0.74959000  1.0
  C  C163  1  0.50076000  0.78849000  0.75182000  1.0
  C  C164  1  0.50076000  0.28849000  0.25182000  1.0
  C  C165  1  0.50600000  0.21311000  0.24959000  1.0
  C  C166  1  0.00600000  0.21311000  0.74959000  1.0
  C  C167  1  0.00076000  0.28849000  0.75182000  1.0
  C  C168  1  0.21249000  0.00337000  0.25084000  1.0
  C  C169  1  0.28693000  0.98940000  0.24868000  1.0
  C  C170  1  0.28693000  0.48940000  0.74868000  1.0
  C  C171  1  0.21249000  0.50337000  0.75084000  1.0
  C  C172  1  0.78693000  0.98940000  0.74868000  1.0
  C  C173  1  0.71249000  0.00337000  0.75084000  1.0
  C  C174  1  0.71249000  0.50337000  0.25084000  1.0
  C  C175  1  0.78693000  0.48940000  0.24868000  1.0
  C  C176  1  0.25041000  0.00600000  0.78689000  1.0
  C  C177  1  0.24818000  0.00076000  0.71151000  1.0
  C  C178  1  0.24818000  0.50076000  0.21151000  1.0
  C  C179  1  0.25041000  0.50600000  0.28689000  1.0
  C  C180  1  0.74818000  0.00076000  0.21151000  1.0
  C  C181  1  0.75041000  0.00600000  0.28689000  1.0
  C  C182  1  0.75041000  0.50600000  0.78689000  1.0
  C  C183  1  0.74818000  0.50076000  0.71151000  1.0
  O  O184  1  0.80027000  0.08928000  0.98990000  1.0
  O  O185  1  0.18740000  0.11581000  0.00421000  1.0
  O  O186  1  0.98643000  0.20015000  0.08968000  1.0
  O  O187  1  0.99579000  0.18740000  0.88419000  1.0
  O  O188  1  0.00954000  0.09017000  0.80064000  1.0
  O  O189  1  0.98701000  0.11623000  0.18744000  1.0
  O  O190  1  0.09017000  0.19936000  0.99045000  1.0
  O  O191  1  0.88419000  0.18705000  0.99166000  1.0
  O  O192  1  0.06757000  0.06757000  0.93243000  1.0
  O  O193  1  0.92349000  0.06728000  0.05875000  1.0
  O  O194  1  0.05901000  0.07538000  0.06681000  1.0
  O  O195  1  0.93319000  0.05901000  0.92462000  1.0
  O  O196  1  0.20015000  0.91032000  0.01357000  1.0
  O  O197  1  0.81375000  0.88299000  0.99148000  1.0
  O  O198  1  0.08928000  0.01010000  0.19973000  1.0
  O  O199  1  0.11581000  0.99579000  0.81260000  1.0
  O  O200  1  0.91032000  0.98643000  0.79985000  1.0
  O  O201  1  0.88299000  0.00852000  0.18625000  1.0
  O  O202  1  0.00852000  0.81375000  0.11701000  1.0
  O  O203  1  0.01010000  0.80027000  0.91072000  1.0
  O  O204  1  0.99361000  0.91110000  0.20021000  1.0
  O  O205  1  0.00834000  0.88419000  0.81295000  1.0
  O  O206  1  0.18705000  0.00834000  0.11581000  1.0
  O  O207  1  0.79979000  0.99361000  0.08890000  1.0
  O  O208  1  0.81256000  0.98701000  0.88377000  1.0
  O  O209  1  0.19936000  0.00954000  0.90983000  1.0
  O  O210  1  0.11623000  0.81256000  0.01299000  1.0
  O  O211  1  0.91110000  0.79979000  0.00640000  1.0
  O  O212  1  0.94125000  0.92349000  0.93272000  1.0
  O  O213  1  0.06728000  0.94125000  0.07651000  1.0
  O  O214  1  0.93299000  0.93299000  0.06701000  1.0
  O  O215  1  0.07538000  0.93319000  0.94099000  1.0
  O  O216  1  0.30027000  0.58928000  0.98990000  1.0
  O  O217  1  0.68740000  0.61581000  0.00421000  1.0
  O  O218  1  0.48643000  0.70015000  0.08968000  1.0
  O  O219  1  0.49579000  0.68740000  0.88419000  1.0
  O  O220  1  0.50954000  0.59017000  0.80064000  1.0
  O  O221  1  0.48701000  0.61623000  0.18744000  1.0
  O  O222  1  0.59017000  0.69936000  0.99045000  1.0
  O  O223  1  0.38419000  0.68705000  0.99166000  1.0
  O  O224  1  0.56757000  0.56757000  0.93243000  1.0
  O  O225  1  0.42349000  0.56728000  0.05875000  1.0
  O  O226  1  0.55901000  0.57538000  0.06681000  1.0
  O  O227  1  0.43319000  0.55901000  0.92462000  1.0
  O  O228  1  0.70015000  0.41032000  0.01357000  1.0
  O  O229  1  0.31375000  0.38299000  0.99148000  1.0
  O  O230  1  0.58928000  0.51010000  0.19973000  1.0
  O  O231  1  0.61581000  0.49579000  0.81260000  1.0
  O  O232  1  0.41032000  0.48643000  0.79985000  1.0
  O  O233  1  0.38299000  0.50852000  0.18625000  1.0
  O  O234  1  0.50852000  0.31375000  0.11701000  1.0
  O  O235  1  0.51010000  0.30027000  0.91072000  1.0
  O  O236  1  0.49361000  0.41110000  0.20021000  1.0
  O  O237  1  0.50834000  0.38419000  0.81295000  1.0
  O  O238  1  0.68705000  0.50834000  0.11581000  1.0
  O  O239  1  0.29979000  0.49361000  0.08890000  1.0
  O  O240  1  0.31256000  0.48701000  0.88377000  1.0
  O  O241  1  0.69936000  0.50954000  0.90983000  1.0
  O  O242  1  0.61623000  0.31256000  0.01299000  1.0
  O  O243  1  0.41110000  0.29979000  0.00640000  1.0
  O  O244  1  0.44125000  0.42349000  0.93272000  1.0
  O  O245  1  0.56728000  0.44125000  0.07651000  1.0
  O  O246  1  0.43299000  0.43299000  0.06701000  1.0
  O  O247  1  0.57538000  0.43319000  0.94099000  1.0
  O  O248  1  0.80027000  0.58928000  0.48990000  1.0
  O  O249  1  0.18740000  0.61581000  0.50421000  1.0
  O  O250  1  0.98643000  0.70015000  0.58968000  1.0
  O  O251  1  0.99579000  0.68740000  0.38419000  1.0
  O  O252  1  0.00954000  0.59017000  0.30064000  1.0
  O  O253  1  0.98701000  0.61623000  0.68744000  1.0
  O  O254  1  0.09017000  0.69936000  0.49046000  1.0
  O  O255  1  0.88419000  0.68705000  0.49166000  1.0
  O  O256  1  0.06757000  0.56757000  0.43243000  1.0
  O  O257  1  0.92349000  0.56728000  0.55875000  1.0
  O  O258  1  0.05901000  0.57538000  0.56681000  1.0
  O  O259  1  0.93319000  0.55901000  0.42462000  1.0
  O  O260  1  0.20015000  0.41032000  0.51357000  1.0
  O  O261  1  0.81375000  0.38299000  0.49148000  1.0
  O  O262  1  0.08928000  0.51010000  0.69973000  1.0
  O  O263  1  0.11581000  0.49579000  0.31260000  1.0
  O  O264  1  0.91032000  0.48643000  0.29985000  1.0
  O  O265  1  0.88299000  0.50852000  0.68625000  1.0
  O  O266  1  0.00852000  0.31375000  0.61701000  1.0
  O  O267  1  0.01010000  0.30027000  0.41072000  1.0
  O  O268  1  0.99360000  0.41110000  0.70021000  1.0
  O  O269  1  0.00834000  0.38419000  0.31295000  1.0
  O  O270  1  0.18705000  0.50834000  0.61581000  1.0
  O  O271  1  0.79979000  0.49360000  0.58890000  1.0
  O  O272  1  0.81256000  0.48701000  0.38377000  1.0
  O  O273  1  0.19936000  0.50954000  0.40983000  1.0
  O  O274  1  0.11623000  0.31256000  0.51299000  1.0
  O  O275  1  0.91110000  0.29979000  0.50639000  1.0
  O  O276  1  0.94125000  0.42349000  0.43272000  1.0
  O  O277  1  0.06728000  0.44125000  0.57651000  1.0
  O  O278  1  0.93299000  0.43299000  0.56701000  1.0
  O  O279  1  0.07538000  0.43319000  0.44099000  1.0
  O  O280  1  0.30027000  0.08928000  0.48990000  1.0
  O  O281  1  0.68740000  0.11581000  0.50421000  1.0
  O  O282  1  0.48643000  0.20015000  0.58968000  1.0
  O  O283  1  0.49579000  0.18740000  0.38419000  1.0
  O  O284  1  0.50954000  0.09017000  0.30064000  1.0
  O  O285  1  0.48701000  0.11623000  0.68744000  1.0
  O  O286  1  0.59017000  0.19936000  0.49046000  1.0
  O  O287  1  0.38419000  0.18705000  0.49166000  1.0
  O  O288  1  0.56757000  0.06757000  0.43243000  1.0
  O  O289  1  0.42349000  0.06728000  0.55875000  1.0
  O  O290  1  0.55901000  0.07538000  0.56681000  1.0
  O  O291  1  0.43319000  0.05901000  0.42462000  1.0
  O  O292  1  0.70015000  0.91032000  0.51357000  1.0
  O  O293  1  0.31375000  0.88299000  0.49148000  1.0
  O  O294  1  0.58928000  0.01010000  0.69973000  1.0
  O  O295  1  0.61581000  0.99579000  0.31260000  1.0
  O  O296  1  0.41032000  0.98643000  0.29985000  1.0
  O  O297  1  0.38299000  0.00852000  0.68625000  1.0
  O  O298  1  0.50852000  0.81375000  0.61701000  1.0
  O  O299  1  0.51010000  0.80027000  0.41072000  1.0
  O  O300  1  0.49360000  0.91110000  0.70021000  1.0
  O  O301  1  0.50834000  0.88419000  0.31295000  1.0
  O  O302  1  0.68705000  0.00834000  0.61581000  1.0
  O  O303  1  0.29979000  0.99360000  0.58890000  1.0
  O  O304  1  0.31256000  0.98701000  0.38377000  1.0
  O  O305  1  0.69936000  0.00954000  0.40983000  1.0
  O  O306  1  0.61623000  0.81256000  0.51299000  1.0
  O  O307  1  0.41110000  0.79979000  0.50639000  1.0
  O  O308  1  0.44125000  0.92349000  0.43272000  1.0
  O  O309  1  0.56728000  0.94125000  0.57651000  1.0
  O  O310  1  0.43299000  0.93299000  0.56701000  1.0
  O  O311  1  0.57538000  0.93319000  0.44099000  1.0
