# generated using pymatgen
data_NdH3C7NO4
_symmetry_space_group_name_H-M   'P 1'
_cell_length_a   13.93600000
_cell_length_b   13.93600000
_cell_length_c   17.46900000
_cell_angle_alpha   90.00000000
_cell_angle_beta   90.00000000
_cell_angle_gamma   90.00000000
_symmetry_Int_Tables_number   1
_chemical_formula_structural   NdH3C7NO4
_chemical_formula_sum   'Nd8 H24 C56 N8 O32'
_cell_volume   3392.69110502
_cell_formula_units_Z   8
loop_
 _symmetry_equiv_pos_site_id
 _symmetry_equiv_pos_as_xyz
  1  'x, y, z'
loop_
 _atom_site_type_symbol
 _atom_site_label
 _atom_site_symmetry_multiplicity
 _atom_site_fract_x
 _atom_site_fract_y
 _atom_site_fract_z
 _atom_site_occupancy
  Nd  Nd0  1  0.28547000  0.67676000  0.74981000  1.0
  Nd  Nd1  1  0.78547000  0.17676000  0.24981000  1.0
  Nd  Nd2  1  0.71453000  0.67676000  0.25019000  1.0
  Nd  Nd3  1  0.21453000  0.17676000  0.75019000  1.0
  Nd  Nd4  1  0.50000000  0.96231000  0.50000000  1.0
  Nd  Nd5  1  0.00000000  0.46231000  0.00000000  1.0
  Nd  Nd6  1  0.00000000  0.89133000  0.50000000  1.0
  Nd  Nd7  1  0.50000000  0.39133000  0.00000000  1.0
  H  H8  1  0.73560000  0.67770000  0.75110000  1.0
  H  H9  1  0.65020000  0.58200000  0.83710000  1.0
  H  H10  1  0.65170000  0.77080000  0.66390000  1.0
  H  H11  1  0.09210000  0.82860000  0.91240000  1.0
  H  H12  1  0.09360000  0.52490000  0.58760000  1.0
  H  H13  1  0.23560000  0.17770000  0.25110000  1.0
  H  H14  1  0.15020000  0.08200000  0.33710000  1.0
  H  H15  1  0.15170000  0.27080000  0.16390000  1.0
  H  H16  1  0.59210000  0.32860000  0.41240000  1.0
  H  H17  1  0.59360000  0.02490000  0.08760000  1.0
  H  H18  1  0.26440000  0.67770000  0.24890000  1.0
  H  H19  1  0.34980000  0.58200000  0.16290000  1.0
  H  H20  1  0.34830000  0.77080000  0.33610000  1.0
  H  H21  1  0.90790000  0.82860000  0.08760000  1.0
  H  H22  1  0.90640000  0.52490000  0.41240000  1.0
  H  H23  1  0.76440000  0.17770000  0.74890000  1.0
  H  H24  1  0.84980000  0.08200000  0.66290000  1.0
  H  H25  1  0.84830000  0.27080000  0.83610000  1.0
  H  H26  1  0.40790000  0.32860000  0.58760000  1.0
  H  H27  1  0.40640000  0.02490000  0.91240000  1.0
  H  H28  1  0.00000000  0.44030000  0.50000000  1.0
  H  H29  1  0.50000000  0.94030000  0.00000000  1.0
  H  H30  1  0.00000000  0.91130000  0.00000000  1.0
  H  H31  1  0.50000000  0.41130000  0.50000000  1.0
  C  C32  1  0.05600000  0.65710000  0.54840000  1.0
  C  C33  1  0.52030000  0.73290000  0.70140000  1.0
  C  C34  1  0.51940000  0.62150000  0.79880000  1.0
  C  C35  1  0.66890000  0.67730000  0.75070000  1.0
  C  C36  1  0.11900000  0.71860000  0.59960000  1.0
  C  C37  1  0.61820000  0.62020000  0.80170000  1.0
  C  C38  1  0.45950000  0.79580000  0.65020000  1.0
  C  C39  1  0.61910000  0.73330000  0.69940000  1.0
  C  C40  1  0.11820000  0.63450000  0.89990000  1.0
  C  C41  1  0.05580000  0.69710000  0.95100000  1.0
  C  C42  1  0.05550000  0.79580000  0.94840000  1.0
  C  C43  1  0.45780000  0.55800000  0.85040000  1.0
  C  C44  1  0.05640000  0.55710000  0.55170000  1.0
  C  C45  1  0.55600000  0.15710000  0.04840000  1.0
  C  C46  1  0.02030000  0.23290000  0.20140000  1.0
  C  C47  1  0.01940000  0.12150000  0.29880000  1.0
  C  C48  1  0.16890000  0.17730000  0.25070000  1.0
  C  C49  1  0.61900000  0.21860000  0.09960000  1.0
  C  C50  1  0.11820000  0.12020000  0.30170000  1.0
  C  C51  1  0.95950000  0.29580000  0.15020000  1.0
  C  C52  1  0.11910000  0.23330000  0.19940000  1.0
  C  C53  1  0.61820000  0.13450000  0.39990000  1.0
  C  C54  1  0.55580000  0.19710000  0.45100000  1.0
  C  C55  1  0.55550000  0.29580000  0.44840000  1.0
  C  C56  1  0.95780000  0.05800000  0.35040000  1.0
  C  C57  1  0.55640000  0.05710000  0.05170000  1.0
  C  C58  1  0.94400000  0.65710000  0.45160000  1.0
  C  C59  1  0.47970000  0.73290000  0.29860000  1.0
  C  C60  1  0.48060000  0.62150000  0.20120000  1.0
  C  C61  1  0.33110000  0.67730000  0.24930000  1.0
  C  C62  1  0.88100000  0.71860000  0.40040000  1.0
  C  C63  1  0.38180000  0.62020000  0.19830000  1.0
  C  C64  1  0.54050000  0.79580000  0.34980000  1.0
  C  C65  1  0.38090000  0.73330000  0.30060000  1.0
  C  C66  1  0.88180000  0.63450000  0.10010000  1.0
  C  C67  1  0.94420000  0.69710000  0.04900000  1.0
  C  C68  1  0.94450000  0.79580000  0.05160000  1.0
  C  C69  1  0.54220000  0.55800000  0.14960000  1.0
  C  C70  1  0.94360000  0.55710000  0.44830000  1.0
  C  C71  1  0.44400000  0.15710000  0.95160000  1.0
  C  C72  1  0.97970000  0.23290000  0.79860000  1.0
  C  C73  1  0.98060000  0.12150000  0.70120000  1.0
  C  C74  1  0.83110000  0.17730000  0.74930000  1.0
  C  C75  1  0.38100000  0.21860000  0.90040000  1.0
  C  C76  1  0.88180000  0.12020000  0.69830000  1.0
  C  C77  1  0.04050000  0.29580000  0.84980000  1.0
  C  C78  1  0.88090000  0.23330000  0.80060000  1.0
  C  C79  1  0.38180000  0.13450000  0.60010000  1.0
  C  C80  1  0.44420000  0.19710000  0.54900000  1.0
  C  C81  1  0.44450000  0.29580000  0.55160000  1.0
  C  C82  1  0.04220000  0.05800000  0.64960000  1.0
  C  C83  1  0.44360000  0.05710000  0.94830000  1.0
  C  C84  1  0.00000000  0.50700000  0.50000000  1.0
  C  C85  1  0.50000000  0.00700000  0.00000000  1.0
  C  C86  1  0.00000000  0.84450000  0.00000000  1.0
  C  C87  1  0.50000000  0.34450000  0.50000000  1.0
  N  N88  1  0.47060000  0.67730000  0.75030000  1.0
  N  N89  1  0.97060000  0.17730000  0.25030000  1.0
  N  N90  1  0.52940000  0.67730000  0.24970000  1.0
  N  N91  1  0.02940000  0.17730000  0.74970000  1.0
  N  N92  1  0.00000000  0.70600000  0.50000000  1.0
  N  N93  1  0.50000000  0.20600000  0.00000000  1.0
  N  N94  1  0.00000000  0.64630000  0.00000000  1.0
  N  N95  1  0.50000000  0.14630000  0.50000000  1.0
  O  O96  1  0.36730000  0.56460000  0.84180000  1.0
  O  O97  1  0.17260000  0.67370000  0.64500000  1.0
  O  O98  1  0.36830000  0.78830000  0.65840000  1.0
  O  O99  1  0.50360000  0.84990000  0.60520000  1.0
  O  O100  1  0.11180000  0.54400000  0.90780000  1.0
  O  O101  1  0.50250000  0.50560000  0.89670000  1.0
  O  O102  1  0.17140000  0.68020000  0.85360000  1.0
  O  O103  1  0.11220000  0.80870000  0.59180000  1.0
  O  O104  1  0.86730000  0.06460000  0.34180000  1.0
  O  O105  1  0.67260000  0.17370000  0.14500000  1.0
  O  O106  1  0.86830000  0.28830000  0.15840000  1.0
  O  O107  1  0.00360000  0.34990000  0.10520000  1.0
  O  O108  1  0.61180000  0.04400000  0.40780000  1.0
  O  O109  1  0.00250000  0.00560000  0.39670000  1.0
  O  O110  1  0.67140000  0.18020000  0.35360000  1.0
  O  O111  1  0.61220000  0.30870000  0.09180000  1.0
  O  O112  1  0.63270000  0.56460000  0.15820000  1.0
  O  O113  1  0.82740000  0.67370000  0.35500000  1.0
  O  O114  1  0.63170000  0.78830000  0.34160000  1.0
  O  O115  1  0.49640000  0.84990000  0.39480000  1.0
  O  O116  1  0.88820000  0.54400000  0.09220000  1.0
  O  O117  1  0.49750000  0.50560000  0.10330000  1.0
  O  O118  1  0.82860000  0.68020000  0.14640000  1.0
  O  O119  1  0.88780000  0.80870000  0.40820000  1.0
  O  O120  1  0.13270000  0.06460000  0.65820000  1.0
  O  O121  1  0.32740000  0.17370000  0.85500000  1.0
  O  O122  1  0.13170000  0.28830000  0.84160000  1.0
  O  O123  1  0.99640000  0.34990000  0.89480000  1.0
  O  O124  1  0.38820000  0.04400000  0.59220000  1.0
  O  O125  1  0.99750000  0.00560000  0.60330000  1.0
  O  O126  1  0.32860000  0.18020000  0.64640000  1.0
  O  O127  1  0.38780000  0.30870000  0.90820000  1.0
