# generated using pymatgen
data_Ag3P2H12C8S6(OF)4
_symmetry_space_group_name_H-M   'P 1'
_cell_length_a   10.18830000
_cell_length_b   12.01580000
_cell_length_c   19.20590000
_cell_angle_alpha   92.79000000
_cell_angle_beta   90.00000000
_cell_angle_gamma   90.00000000
_symmetry_Int_Tables_number   1
_chemical_formula_structural   Ag3P2H12C8S6(OF)4
_chemical_formula_sum   'Ag12 P8 H48 C32 S24 O16 F16'
_cell_volume   2348.41032768
_cell_formula_units_Z   4
loop_
 _symmetry_equiv_pos_site_id
 _symmetry_equiv_pos_as_xyz
  1  'x, y, z'
loop_
 _atom_site_type_symbol
 _atom_site_label
 _atom_site_symmetry_multiplicity
 _atom_site_fract_x
 _atom_site_fract_y
 _atom_site_fract_z
 _atom_site_occupancy
  Ag  Ag0  1  0.57895000  0.24434000  0.60221000  1.0
  Ag  Ag1  1  0.29613000  0.48760000  0.86368000  1.0
  Ag  Ag2  1  0.42432000  0.73043000  0.59049000  1.0
  Ag  Ag3  1  0.07895000  0.25566000  0.89779000  1.0
  Ag  Ag4  1  0.79613000  0.01240000  0.63632000  1.0
  Ag  Ag5  1  0.92432000  0.76957000  0.90951000  1.0
  Ag  Ag6  1  0.42105000  0.75566000  0.39779000  1.0
  Ag  Ag7  1  0.70387000  0.51240000  0.13632000  1.0
  Ag  Ag8  1  0.57568000  0.26957000  0.40951000  1.0
  Ag  Ag9  1  0.92105000  0.74434000  0.10221000  1.0
  Ag  Ag10  1  0.20387000  0.98760000  0.36368000  1.0
  Ag  Ag11  1  0.07568000  0.23043000  0.09049000  1.0
  P  P12  1  0.32581000  0.15102000  0.49567000  1.0
  P  P13  1  0.46460000  0.00429000  0.68154000  1.0
  P  P14  1  0.82581000  0.34898000  0.00433000  1.0
  P  P15  1  0.96460000  0.49571000  0.81846000  1.0
  P  P16  1  0.67419000  0.84898000  0.50433000  1.0
  P  P17  1  0.53540000  0.99571000  0.31846000  1.0
  P  P18  1  0.17419000  0.65102000  0.99567000  1.0
  P  P19  1  0.03540000  0.50429000  0.18154000  1.0
  H  H20  1  0.73270000  0.46880000  0.55720000  1.0
  H  H21  1  0.81360000  0.54360000  0.61350000  1.0
  H  H22  1  0.71270000  0.60110000  0.56250000  1.0
  H  H23  1  0.48140000  0.27910000  0.82750000  1.0
  H  H24  1  0.63570000  0.29720000  0.81770000  1.0
  H  H25  1  0.55560000  0.22050000  0.76210000  1.0
  H  H26  1  0.56750000  0.73820000  0.83180000  1.0
  H  H27  1  0.41330000  0.71980000  0.84230000  1.0
  H  H28  1  0.46480000  0.79420000  0.78110000  1.0
  H  H29  1  0.14350000  0.46400000  0.65520000  1.0
  H  H30  1  0.21940000  0.40770000  0.58960000  1.0
  H  H31  1  0.19660000  0.53970000  0.59490000  1.0
  H  H32  1  0.23270000  0.03120000  0.94280000  1.0
  H  H33  1  0.31360000  0.95640000  0.88650000  1.0
  H  H34  1  0.21270000  0.89890000  0.93750000  1.0
  H  H35  1  0.98140000  0.22090000  0.67250000  1.0
  H  H36  1  0.13570000  0.20280000  0.68230000  1.0
  H  H37  1  0.05560000  0.27950000  0.73790000  1.0
  H  H38  1  0.06750000  0.76180000  0.66820000  1.0
  H  H39  1  0.91330000  0.78020000  0.65770000  1.0
  H  H40  1  0.96480000  0.70580000  0.71890000  1.0
  H  H41  1  0.64350000  0.03600000  0.84480000  1.0
  H  H42  1  0.71940000  0.09230000  0.91040000  1.0
  H  H43  1  0.69660000  0.96030000  0.90510000  1.0
  H  H44  1  0.26730000  0.53120000  0.44280000  1.0
  H  H45  1  0.18640000  0.45640000  0.38650000  1.0
  H  H46  1  0.28730000  0.39890000  0.43750000  1.0
  H  H47  1  0.51860000  0.72090000  0.17250000  1.0
  H  H48  1  0.36430000  0.70280000  0.18230000  1.0
  H  H49  1  0.44440000  0.77950000  0.23790000  1.0
  H  H50  1  0.43250000  0.26180000  0.16820000  1.0
  H  H51  1  0.58670000  0.28020000  0.15770000  1.0
  H  H52  1  0.53520000  0.20580000  0.21890000  1.0
  H  H53  1  0.85650000  0.53600000  0.34480000  1.0
  H  H54  1  0.78060000  0.59230000  0.41040000  1.0
  H  H55  1  0.80340000  0.46030000  0.40510000  1.0
  H  H56  1  0.76730000  0.96880000  0.05720000  1.0
  H  H57  1  0.68640000  0.04360000  0.11350000  1.0
  H  H58  1  0.78730000  0.10110000  0.06250000  1.0
  H  H59  1  0.01860000  0.77910000  0.32750000  1.0
  H  H60  1  0.86430000  0.79720000  0.31770000  1.0
  H  H61  1  0.94440000  0.72050000  0.26210000  1.0
  H  H62  1  0.93250000  0.23820000  0.33180000  1.0
  H  H63  1  0.08670000  0.21980000  0.34230000  1.0
  H  H64  1  0.03520000  0.29420000  0.28110000  1.0
  H  H65  1  0.35650000  0.96400000  0.15520000  1.0
  H  H66  1  0.28060000  0.90770000  0.08960000  1.0
  H  H67  1  0.30340000  0.03970000  0.09490000  1.0
  C  C68  1  0.72950000  0.53500000  0.58910000  1.0
  C  C69  1  0.61950000  0.52180000  0.64230000  1.0
  C  C70  1  0.55170000  0.28730000  0.79330000  1.0
  C  C71  1  0.52410000  0.38930000  0.75070000  1.0
  C  C72  1  0.48300000  0.72860000  0.80780000  1.0
  C  C73  1  0.48840000  0.62450000  0.75830000  1.0
  C  C74  1  0.21430000  0.47370000  0.62150000  1.0
  C  C75  1  0.34470000  0.48890000  0.66030000  1.0
  C  C76  1  0.22950000  0.96500000  0.91090000  1.0
  C  C77  1  0.11950000  0.97820000  0.85770000  1.0
  C  C78  1  0.05170000  0.21270000  0.70670000  1.0
  C  C79  1  0.02410000  0.11070000  0.74930000  1.0
  C  C80  1  0.98300000  0.77140000  0.69220000  1.0
  C  C81  1  0.98840000  0.87550000  0.74170000  1.0
  C  C82  1  0.71430000  0.02630000  0.87850000  1.0
  C  C83  1  0.84470000  0.01110000  0.83970000  1.0
  C  C84  1  0.27050000  0.46500000  0.41090000  1.0
  C  C85  1  0.38050000  0.47820000  0.35770000  1.0
  C  C86  1  0.44830000  0.71270000  0.20670000  1.0
  C  C87  1  0.47590000  0.61070000  0.24930000  1.0
  C  C88  1  0.51700000  0.27140000  0.19220000  1.0
  C  C89  1  0.51160000  0.37550000  0.24170000  1.0
  C  C90  1  0.78570000  0.52630000  0.37850000  1.0
  C  C91  1  0.65530000  0.51110000  0.33970000  1.0
  C  C92  1  0.77050000  0.03500000  0.08910000  1.0
  C  C93  1  0.88050000  0.02180000  0.14230000  1.0
  C  C94  1  0.94830000  0.78730000  0.29330000  1.0
  C  C95  1  0.97590000  0.88930000  0.25070000  1.0
  C  C96  1  0.01700000  0.22860000  0.30780000  1.0
  C  C97  1  0.01160000  0.12450000  0.25830000  1.0
  C  C98  1  0.28570000  0.97370000  0.12150000  1.0
  C  C99  1  0.15530000  0.98890000  0.16030000  1.0
  S  S100  1  0.62184000  0.64779000  0.69838000  1.0
  S  S101  1  0.46797000  0.50610000  0.59251000  1.0
  S  S102  1  0.32797000  0.61382000  0.71689000  1.0
  S  S103  1  0.65944000  0.39771000  0.68886000  1.0
  S  S104  1  0.52248000  0.50853000  0.81329000  1.0
  S  S105  1  0.36864000  0.36373000  0.70766000  1.0
  S  S106  1  0.12184000  0.85221000  0.80162000  1.0
  S  S107  1  0.96797000  0.99390000  0.90749000  1.0
  S  S108  1  0.82797000  0.88618000  0.78311000  1.0
  S  S109  1  0.15944000  0.10229000  0.81114000  1.0
  S  S110  1  0.02248000  0.99147000  0.68671000  1.0
  S  S111  1  0.86864000  0.13627000  0.79234000  1.0
  S  S112  1  0.37816000  0.35221000  0.30162000  1.0
  S  S113  1  0.53203000  0.49390000  0.40749000  1.0
  S  S114  1  0.67203000  0.38618000  0.28311000  1.0
  S  S115  1  0.34056000  0.60229000  0.31114000  1.0
  S  S116  1  0.47752000  0.49147000  0.18671000  1.0
  S  S117  1  0.63136000  0.63627000  0.29234000  1.0
  S  S118  1  0.87816000  0.14779000  0.19838000  1.0
  S  S119  1  0.03203000  0.00610000  0.09251000  1.0
  S  S120  1  0.17203000  0.11382000  0.21689000  1.0
  S  S121  1  0.84056000  0.89771000  0.18886000  1.0
  S  S122  1  0.97752000  0.00853000  0.31329000  1.0
  S  S123  1  0.13136000  0.86373000  0.20766000  1.0
  O  O124  1  0.44450000  0.21940000  0.50814000  1.0
  O  O125  1  0.25800000  0.15110000  0.42838000  1.0
  O  O126  1  0.44080000  0.88920000  0.66020000  1.0
  O  O127  1  0.57770000  0.06820000  0.65744000  1.0
  O  O128  1  0.94450000  0.28060000  0.99186000  1.0
  O  O129  1  0.75800000  0.34890000  0.07162000  1.0
  O  O130  1  0.94080000  0.61080000  0.83980000  1.0
  O  O131  1  0.07770000  0.43180000  0.84256000  1.0
  O  O132  1  0.55550000  0.78060000  0.49186000  1.0
  O  O133  1  0.74200000  0.84890000  0.57162000  1.0
  O  O134  1  0.55920000  0.11080000  0.33980000  1.0
  O  O135  1  0.42230000  0.93180000  0.34256000  1.0
  O  O136  1  0.05550000  0.71940000  0.00814000  1.0
  O  O137  1  0.24200000  0.65110000  0.92838000  1.0
  O  O138  1  0.05920000  0.38920000  0.16020000  1.0
  O  O139  1  0.92230000  0.56820000  0.15744000  1.0
  F  F140  1  0.35510000  0.03120000  0.51531000  1.0
  F  F141  1  0.22750000  0.18250000  0.55446000  1.0
  F  F142  1  0.46490000  0.01390000  0.76253000  1.0
  F  F143  1  0.34150000  0.07490000  0.66986000  1.0
  F  F144  1  0.85510000  0.46880000  0.98469000  1.0
  F  F145  1  0.72750000  0.31750000  0.94554000  1.0
  F  F146  1  0.96490000  0.48610000  0.73747000  1.0
  F  F147  1  0.84150000  0.42510000  0.83014000  1.0
  F  F148  1  0.64490000  0.96880000  0.48469000  1.0
  F  F149  1  0.77250000  0.81750000  0.44554000  1.0
  F  F150  1  0.53510000  0.98610000  0.23747000  1.0
  F  F151  1  0.65850000  0.92510000  0.33014000  1.0
  F  F152  1  0.14490000  0.53120000  0.01531000  1.0
  F  F153  1  0.27250000  0.68250000  0.05446000  1.0
  F  F154  1  0.03510000  0.51390000  0.26253000  1.0
  F  F155  1  0.15850000  0.57490000  0.16986000  1.0
