# generated using pymatgen
data_Na7Mo5P2H26C20(N2O5)5
_symmetry_space_group_name_H-M   'P 1'
_cell_length_a   16.05170000
_cell_length_b   16.05170000
_cell_length_c   42.80820000
_cell_angle_alpha   90.00000000
_cell_angle_beta   90.00000000
_cell_angle_gamma   120.00000000
_symmetry_Int_Tables_number   1
_chemical_formula_structural   Na7Mo5P2H26C20(N2O5)5
_chemical_formula_sum   'Na42 Mo30 P12 H156 C120 N60 O150'
_cell_volume   9552.11774922
_cell_formula_units_Z   6
loop_
 _symmetry_equiv_pos_site_id
 _symmetry_equiv_pos_as_xyz
  1  'x, y, z'
loop_
 _atom_site_type_symbol
 _atom_site_label
 _atom_site_symmetry_multiplicity
 _atom_site_fract_x
 _atom_site_fract_y
 _atom_site_fract_z
 _atom_site_occupancy
  Na  Na0  1  0.32590000  0.72180000  0.99840000  1.0
  Na  Na1  1  0.06400000  0.68500000  0.01480000  1.0
  Na  Na2  1  0.97600000  0.45570000  0.04090000  1.0
  Na  Na3  1  0.27820000  0.60410000  0.66507000  1.0
  Na  Na4  1  0.31500000  0.37900000  0.68147000  1.0
  Na  Na5  1  0.54430000  0.52030000  0.70757000  1.0
  Na  Na6  1  0.39590000  0.67410000  0.33173000  1.0
  Na  Na7  1  0.62100000  0.93600000  0.34813000  1.0
  Na  Na8  1  0.47970000  0.02400000  0.37423000  1.0
  Na  Na9  1  0.67410000  0.27820000  0.49840000  1.0
  Na  Na10  1  0.93600000  0.31500000  0.51480000  1.0
  Na  Na11  1  0.02400000  0.54430000  0.54090000  1.0
  Na  Na12  1  0.72180000  0.39590000  0.16507000  1.0
  Na  Na13  1  0.68500000  0.62100000  0.18147000  1.0
  Na  Na14  1  0.45570000  0.47970000  0.20757000  1.0
  Na  Na15  1  0.60410000  0.32590000  0.83173000  1.0
  Na  Na16  1  0.37900000  0.06400000  0.84813000  1.0
  Na  Na17  1  0.52030000  0.97600000  0.87423000  1.0
  Na  Na18  1  0.72180000  0.32590000  0.66827000  1.0
  Na  Na19  1  0.68500000  0.06400000  0.65187000  1.0
  Na  Na20  1  0.45570000  0.97600000  0.62577000  1.0
  Na  Na21  1  0.60410000  0.27820000  0.00160000  1.0
  Na  Na22  1  0.37900000  0.31500000  0.98520000  1.0
  Na  Na23  1  0.52030000  0.54430000  0.95910000  1.0
  Na  Na24  1  0.67410000  0.39590000  0.33493000  1.0
  Na  Na25  1  0.93600000  0.62100000  0.31853000  1.0
  Na  Na26  1  0.02400000  0.47970000  0.29243000  1.0
  Na  Na27  1  0.27820000  0.67410000  0.16827000  1.0
  Na  Na28  1  0.31500000  0.93600000  0.15187000  1.0
  Na  Na29  1  0.54430000  0.02400000  0.12577000  1.0
  Na  Na30  1  0.39590000  0.72180000  0.50160000  1.0
  Na  Na31  1  0.62100000  0.68500000  0.48520000  1.0
  Na  Na32  1  0.47970000  0.45570000  0.45910000  1.0
  Na  Na33  1  0.32590000  0.60410000  0.83493000  1.0
  Na  Na34  1  0.06400000  0.37900000  0.81853000  1.0
  Na  Na35  1  0.97600000  0.52030000  0.79243000  1.0
  Na  Na36  1  0.84990000  0.15010000  0.08333000  1.0
  Na  Na37  1  0.84990000  0.69980000  0.75000000  1.0
  Na  Na38  1  0.30020000  0.15010000  0.41667000  1.0
  Na  Na39  1  0.15010000  0.84990000  0.58333000  1.0
  Na  Na40  1  0.15010000  0.30020000  0.25000000  1.0
  Na  Na41  1  0.69980000  0.84990000  0.91667000  1.0
  Mo  Mo42  1  0.55098000  0.68363000  0.03602000  1.0
  Mo  Mo43  1  0.60774000  0.50958000  0.04626000  1.0
  Mo  Mo44  1  0.31637000  0.86735000  0.70269000  1.0
  Mo  Mo45  1  0.49042000  0.09816000  0.71293000  1.0
  Mo  Mo46  1  0.13265000  0.44902000  0.36935000  1.0
  Mo  Mo47  1  0.90184000  0.39226000  0.37959000  1.0
  Mo  Mo48  1  0.44902000  0.31637000  0.53602000  1.0
  Mo  Mo49  1  0.39226000  0.49042000  0.54626000  1.0
  Mo  Mo50  1  0.68363000  0.13265000  0.20269000  1.0
  Mo  Mo51  1  0.50958000  0.90184000  0.21293000  1.0
  Mo  Mo52  1  0.86735000  0.55098000  0.86935000  1.0
  Mo  Mo53  1  0.09816000  0.60774000  0.87959000  1.0
  Mo  Mo54  1  0.68363000  0.55098000  0.63065000  1.0
  Mo  Mo55  1  0.50958000  0.60774000  0.62041000  1.0
  Mo  Mo56  1  0.86735000  0.31637000  0.96398000  1.0
  Mo  Mo57  1  0.09816000  0.49042000  0.95374000  1.0
  Mo  Mo58  1  0.44902000  0.13265000  0.29731000  1.0
  Mo  Mo59  1  0.39226000  0.90184000  0.28707000  1.0
  Mo  Mo60  1  0.31637000  0.44902000  0.13065000  1.0
  Mo  Mo61  1  0.49042000  0.39226000  0.12041000  1.0
  Mo  Mo62  1  0.13265000  0.68363000  0.46398000  1.0
  Mo  Mo63  1  0.90184000  0.50958000  0.45374000  1.0
  Mo  Mo64  1  0.55098000  0.86735000  0.79731000  1.0
  Mo  Mo65  1  0.60774000  0.09816000  0.78707000  1.0
  Mo  Mo66  1  0.36552000  0.63448000  0.08333000  1.0
  Mo  Mo67  1  0.36552000  0.73104000  0.75000000  1.0
  Mo  Mo68  1  0.26896000  0.63448000  0.41667000  1.0
  Mo  Mo69  1  0.63448000  0.36552000  0.58333000  1.0
  Mo  Mo70  1  0.63448000  0.26896000  0.25000000  1.0
  Mo  Mo71  1  0.73104000  0.36552000  0.91667000  1.0
  P  P72  1  0.38020000  0.44340000  0.05502000  1.0
  P  P73  1  0.55660000  0.93680000  0.72169000  1.0
  P  P74  1  0.06320000  0.61980000  0.38835000  1.0
  P  P75  1  0.61980000  0.55660000  0.55502000  1.0
  P  P76  1  0.44340000  0.06320000  0.22169000  1.0
  P  P77  1  0.93680000  0.38020000  0.88835000  1.0
  P  P78  1  0.44340000  0.38020000  0.61165000  1.0
  P  P79  1  0.93680000  0.55660000  0.94498000  1.0
  P  P80  1  0.61980000  0.06320000  0.27831000  1.0
  P  P81  1  0.55660000  0.61980000  0.11165000  1.0
  P  P82  1  0.06320000  0.44340000  0.44498000  1.0
  P  P83  1  0.38020000  0.93680000  0.77831000  1.0
  H  H84  1  0.25080000  0.40280000  0.00190000  1.0
  H  H85  1  0.23240000  0.46100000  0.02910000  1.0
  H  H86  1  0.07810000  0.33580000  0.01040000  1.0
  H  H87  1  0.11880000  0.36480000  0.06990000  1.0
  H  H88  1  0.98830000  0.11620000  0.03600000  1.0
  H  H89  1  0.96230000  0.32360000  0.04410000  1.0
  H  H90  1  0.14610000  0.24130000  0.07690000  1.0
  H  H91  1  0.02470000  0.14420000  0.11070000  1.0
  H  H92  1  0.24710000  0.19290000  0.03660000  1.0
  H  H93  1  0.26930000  0.06100000  0.03490000  1.0
  H  H94  1  0.98170000  0.75340000  0.05260000  1.0
  H  H95  1  0.79570000  0.80100000  0.05360000  1.0
  H  H96  1  0.82310000  0.72290000  0.05560000  1.0
  H  H97  1  0.59720000  0.84800000  0.66857000  1.0
  H  H98  1  0.53900000  0.77140000  0.69577000  1.0
  H  H99  1  0.66420000  0.74230000  0.67707000  1.0
  H  H100  1  0.63520000  0.75400000  0.73657000  1.0
  H  H101  1  0.88380000  0.87210000  0.70267000  1.0
  H  H102  1  0.67640000  0.63870000  0.71077000  1.0
  H  H103  1  0.75870000  0.90480000  0.74357000  1.0
  H  H104  1  0.85580000  0.88050000  0.77737000  1.0
  H  H105  1  0.80710000  0.05420000  0.70327000  1.0
  H  H106  1  0.93900000  0.20830000  0.70157000  1.0
  H  H107  1  0.24660000  0.22830000  0.71927000  1.0
  H  H108  1  0.19900000  0.99470000  0.72027000  1.0
  H  H109  1  0.27710000  0.10020000  0.72227000  1.0
  H  H110  1  0.15200000  0.74920000  0.33523000  1.0
  H  H111  1  0.22860000  0.76760000  0.36243000  1.0
  H  H112  1  0.25770000  0.92190000  0.34373000  1.0
  H  H113  1  0.24600000  0.88120000  0.40323000  1.0
  H  H114  1  0.12790000  0.01170000  0.36933000  1.0
  H  H115  1  0.36130000  0.03770000  0.37743000  1.0
  H  H116  1  0.09520000  0.85390000  0.41023000  1.0
  H  H117  1  0.11950000  0.97530000  0.44403000  1.0
  H  H118  1  0.94580000  0.75290000  0.36993000  1.0
  H  H119  1  0.79170000  0.73070000  0.36823000  1.0
  H  H120  1  0.77170000  0.01830000  0.38593000  1.0
  H  H121  1  0.00530000  0.20430000  0.38693000  1.0
  H  H122  1  0.89980000  0.17690000  0.38893000  1.0
  H  H123  1  0.74920000  0.59720000  0.50190000  1.0
  H  H124  1  0.76760000  0.53900000  0.52910000  1.0
  H  H125  1  0.92190000  0.66420000  0.51040000  1.0
  H  H126  1  0.88120000  0.63520000  0.56990000  1.0
  H  H127  1  0.01170000  0.88380000  0.53600000  1.0
  H  H128  1  0.03770000  0.67640000  0.54410000  1.0
  H  H129  1  0.85390000  0.75870000  0.57690000  1.0
  H  H130  1  0.97530000  0.85580000  0.61070000  1.0
  H  H131  1  0.75290000  0.80710000  0.53660000  1.0
  H  H132  1  0.73070000  0.93900000  0.53490000  1.0
  H  H133  1  0.01830000  0.24660000  0.55260000  1.0
  H  H134  1  0.20430000  0.19900000  0.55360000  1.0
  H  H135  1  0.17690000  0.27710000  0.55560000  1.0
  H  H136  1  0.40280000  0.15200000  0.16857000  1.0
  H  H137  1  0.46100000  0.22860000  0.19577000  1.0
  H  H138  1  0.33580000  0.25770000  0.17707000  1.0
  H  H139  1  0.36480000  0.24600000  0.23657000  1.0
  H  H140  1  0.11620000  0.12790000  0.20267000  1.0
  H  H141  1  0.32360000  0.36130000  0.21077000  1.0
  H  H142  1  0.24130000  0.09520000  0.24357000  1.0
  H  H143  1  0.14420000  0.11950000  0.27737000  1.0
  H  H144  1  0.19290000  0.94580000  0.20327000  1.0
  H  H145  1  0.06100000  0.79170000  0.20157000  1.0
  H  H146  1  0.75340000  0.77170000  0.21927000  1.0
  H  H147  1  0.80100000  0.00530000  0.22027000  1.0
  H  H148  1  0.72290000  0.89980000  0.22227000  1.0
  H  H149  1  0.84800000  0.25080000  0.83523000  1.0
  H  H150  1  0.77140000  0.23240000  0.86243000  1.0
  H  H151  1  0.74230000  0.07810000  0.84373000  1.0
  H  H152  1  0.75400000  0.11880000  0.90323000  1.0
  H  H153  1  0.87210000  0.98830000  0.86933000  1.0
  H  H154  1  0.63870000  0.96230000  0.87743000  1.0
  H  H155  1  0.90480000  0.14610000  0.91023000  1.0
  H  H156  1  0.88050000  0.02470000  0.94403000  1.0
  H  H157  1  0.05420000  0.24710000  0.86993000  1.0
  H  H158  1  0.20830000  0.26930000  0.86823000  1.0
  H  H159  1  0.22830000  0.98170000  0.88593000  1.0
  H  H160  1  0.99470000  0.79570000  0.88693000  1.0
  H  H161  1  0.10020000  0.82310000  0.88893000  1.0
  H  H162  1  0.40280000  0.25080000  0.66477000  1.0
  H  H163  1  0.46100000  0.23240000  0.63757000  1.0
  H  H164  1  0.33580000  0.07810000  0.65627000  1.0
  H  H165  1  0.36480000  0.11880000  0.59677000  1.0
  H  H166  1  0.11620000  0.98830000  0.63067000  1.0
  H  H167  1  0.32360000  0.96230000  0.62257000  1.0
  H  H168  1  0.24130000  0.14610000  0.58977000  1.0
  H  H169  1  0.14420000  0.02470000  0.55597000  1.0
  H  H170  1  0.19290000  0.24710000  0.63007000  1.0
  H  H171  1  0.06100000  0.26930000  0.63177000  1.0
  H  H172  1  0.75340000  0.98170000  0.61407000  1.0
  H  H173  1  0.80100000  0.79570000  0.61307000  1.0
  H  H174  1  0.72290000  0.82310000  0.61107000  1.0
  H  H175  1  0.84800000  0.59720000  0.99810000  1.0
  H  H176  1  0.77140000  0.53900000  0.97090000  1.0
  H  H177  1  0.74230000  0.66420000  0.98960000  1.0
  H  H178  1  0.75400000  0.63520000  0.93010000  1.0
  H  H179  1  0.87210000  0.88380000  0.96400000  1.0
  H  H180  1  0.63870000  0.67640000  0.95590000  1.0
  H  H181  1  0.90480000  0.75870000  0.92310000  1.0
  H  H182  1  0.88050000  0.85580000  0.88930000  1.0
  H  H183  1  0.05420000  0.80710000  0.96340000  1.0
  H  H184  1  0.20830000  0.93900000  0.96510000  1.0
  H  H185  1  0.22830000  0.24660000  0.94740000  1.0
  H  H186  1  0.99470000  0.19900000  0.94640000  1.0
  H  H187  1  0.10020000  0.27710000  0.94440000  1.0
  H  H188  1  0.74920000  0.15200000  0.33143000  1.0
  H  H189  1  0.76760000  0.22860000  0.30423000  1.0
  H  H190  1  0.92190000  0.25770000  0.32293000  1.0
  H  H191  1  0.88120000  0.24600000  0.26343000  1.0
  H  H192  1  0.01170000  0.12790000  0.29733000  1.0
  H  H193  1  0.03770000  0.36130000  0.28923000  1.0
  H  H194  1  0.85390000  0.09520000  0.25643000  1.0
  H  H195  1  0.97530000  0.11950000  0.22263000  1.0
  H  H196  1  0.75290000  0.94580000  0.29673000  1.0
  H  H197  1  0.73070000  0.79170000  0.29843000  1.0
  H  H198  1  0.01830000  0.77170000  0.28073000  1.0
  H  H199  1  0.20430000  0.00530000  0.27973000  1.0
  H  H200  1  0.17690000  0.89980000  0.27773000  1.0
  H  H201  1  0.59720000  0.74920000  0.16477000  1.0
  H  H202  1  0.53900000  0.76760000  0.13757000  1.0
  H  H203  1  0.66420000  0.92190000  0.15627000  1.0
  H  H204  1  0.63520000  0.88120000  0.09677000  1.0
  H  H205  1  0.88380000  0.01170000  0.13067000  1.0
  H  H206  1  0.67640000  0.03770000  0.12257000  1.0
  H  H207  1  0.75870000  0.85390000  0.08977000  1.0
  H  H208  1  0.85580000  0.97530000  0.05597000  1.0
  H  H209  1  0.80710000  0.75290000  0.13007000  1.0
  H  H210  1  0.93900000  0.73070000  0.13177000  1.0
  H  H211  1  0.24660000  0.01830000  0.11407000  1.0
  H  H212  1  0.19900000  0.20430000  0.11307000  1.0
  H  H213  1  0.27710000  0.17690000  0.11107000  1.0
  H  H214  1  0.15200000  0.40280000  0.49810000  1.0
  H  H215  1  0.22860000  0.46100000  0.47090000  1.0
  H  H216  1  0.25770000  0.33580000  0.48960000  1.0
  H  H217  1  0.24600000  0.36480000  0.43010000  1.0
  H  H218  1  0.12790000  0.11620000  0.46400000  1.0
  H  H219  1  0.36130000  0.32360000  0.45590000  1.0
  H  H220  1  0.09520000  0.24130000  0.42310000  1.0
  H  H221  1  0.11950000  0.14420000  0.38930000  1.0
  H  H222  1  0.94580000  0.19290000  0.46340000  1.0
  H  H223  1  0.79170000  0.06100000  0.46510000  1.0
  H  H224  1  0.77170000  0.75340000  0.44740000  1.0
  H  H225  1  0.00530000  0.80100000  0.44640000  1.0
  H  H226  1  0.89980000  0.72290000  0.44440000  1.0
  H  H227  1  0.25080000  0.84800000  0.83143000  1.0
  H  H228  1  0.23240000  0.77140000  0.80423000  1.0
  H  H229  1  0.07810000  0.74230000  0.82293000  1.0
  H  H230  1  0.11880000  0.75400000  0.76343000  1.0
  H  H231  1  0.98830000  0.87210000  0.79733000  1.0
  H  H232  1  0.96230000  0.63870000  0.78923000  1.0
  H  H233  1  0.14610000  0.90480000  0.75643000  1.0
  H  H234  1  0.02470000  0.88050000  0.72263000  1.0
  H  H235  1  0.24710000  0.05420000  0.79673000  1.0
  H  H236  1  0.26930000  0.20830000  0.79843000  1.0
  H  H237  1  0.98170000  0.22830000  0.78073000  1.0
  H  H238  1  0.79570000  0.99470000  0.77973000  1.0
  H  H239  1  0.82310000  0.10020000  0.77773000  1.0
  C  C240  1  0.22490000  0.39790000  0.02330000  1.0
  C  C241  1  0.11600000  0.31750000  0.02460000  1.0
  C  C242  1  0.07820000  0.30640000  0.05700000  1.0
  C  C243  1  0.05930000  0.15630000  0.03940000  1.0
  C  C244  1  0.08030000  0.22130000  0.06880000  1.0
  C  C245  1  0.19800000  0.12730000  0.03720000  1.0
  C  C246  1  0.05410000  0.00030000  0.04190000  1.0
  C  C247  1  0.12460000  0.97370000  0.04060000  1.0
  C  C248  1  0.93390000  0.85120000  0.04880000  1.0
  C  C249  1  0.10570000  0.87680000  0.04280000  1.0
  C  C250  1  0.60210000  0.82700000  0.68997000  1.0
  C  C251  1  0.68250000  0.79850000  0.69127000  1.0
  C  C252  1  0.69360000  0.77180000  0.72367000  1.0
  C  C253  1  0.84370000  0.90300000  0.70607000  1.0
  C  C254  1  0.77870000  0.85900000  0.73547000  1.0
  C  C255  1  0.87270000  0.07070000  0.70387000  1.0
  C  C256  1  0.99970000  0.05380000  0.70857000  1.0
  C  C257  1  0.02630000  0.15090000  0.70727000  1.0
  C  C258  1  0.14880000  0.08270000  0.71547000  1.0
  C  C259  1  0.12320000  0.22890000  0.70947000  1.0
  C  C260  1  0.17300000  0.77510000  0.35663000  1.0
  C  C261  1  0.20150000  0.88400000  0.35793000  1.0
  C  C262  1  0.22820000  0.92180000  0.39033000  1.0
  C  C263  1  0.09700000  0.94070000  0.37273000  1.0
  C  C264  1  0.14100000  0.91970000  0.40213000  1.0
  C  C265  1  0.92930000  0.80200000  0.37053000  1.0
  C  C266  1  0.94620000  0.94590000  0.37523000  1.0
  C  C267  1  0.84910000  0.87540000  0.37393000  1.0
  C  C268  1  0.91730000  0.06610000  0.38213000  1.0
  C  C269  1  0.77110000  0.89430000  0.37613000  1.0
  C  C270  1  0.77510000  0.60210000  0.52330000  1.0
  C  C271  1  0.88400000  0.68250000  0.52460000  1.0
  C  C272  1  0.92180000  0.69360000  0.55700000  1.0
  C  C273  1  0.94070000  0.84370000  0.53940000  1.0
  C  C274  1  0.91970000  0.77870000  0.56880000  1.0
  C  C275  1  0.80200000  0.87270000  0.53720000  1.0
  C  C276  1  0.94590000  0.99970000  0.54190000  1.0
  C  C277  1  0.87540000  0.02630000  0.54060000  1.0
  C  C278  1  0.06610000  0.14880000  0.54880000  1.0
  C  C279  1  0.89430000  0.12320000  0.54280000  1.0
  C  C280  1  0.39790000  0.17300000  0.18997000  1.0
  C  C281  1  0.31750000  0.20150000  0.19127000  1.0
  C  C282  1  0.30640000  0.22820000  0.22367000  1.0
  C  C283  1  0.15630000  0.09700000  0.20607000  1.0
  C  C284  1  0.22130000  0.14100000  0.23547000  1.0
  C  C285  1  0.12730000  0.92930000  0.20387000  1.0
  C  C286  1  0.00030000  0.94620000  0.20857000  1.0
  C  C287  1  0.97370000  0.84910000  0.20727000  1.0
  C  C288  1  0.85120000  0.91730000  0.21547000  1.0
  C  C289  1  0.87680000  0.77110000  0.20947000  1.0
  C  C290  1  0.82700000  0.22490000  0.85663000  1.0
  C  C291  1  0.79850000  0.11600000  0.85793000  1.0
  C  C292  1  0.77180000  0.07820000  0.89033000  1.0
  C  C293  1  0.90300000  0.05930000  0.87273000  1.0
  C  C294  1  0.85900000  0.08030000  0.90213000  1.0
  C  C295  1  0.07070000  0.19800000  0.87053000  1.0
  C  C296  1  0.05380000  0.05410000  0.87523000  1.0
  C  C297  1  0.15090000  0.12460000  0.87393000  1.0
  C  C298  1  0.08270000  0.93390000  0.88213000  1.0
  C  C299  1  0.22890000  0.10570000  0.87613000  1.0
  C  C300  1  0.39790000  0.22490000  0.64337000  1.0
  C  C301  1  0.31750000  0.11600000  0.64207000  1.0
  C  C302  1  0.30640000  0.07820000  0.60967000  1.0
  C  C303  1  0.15630000  0.05930000  0.62727000  1.0
  C  C304  1  0.22130000  0.08030000  0.59787000  1.0
  C  C305  1  0.12730000  0.19800000  0.62947000  1.0
  C  C306  1  0.00030000  0.05410000  0.62477000  1.0
  C  C307  1  0.97370000  0.12460000  0.62607000  1.0
  C  C308  1  0.85120000  0.93390000  0.61787000  1.0
  C  C309  1  0.87680000  0.10570000  0.62387000  1.0
  C  C310  1  0.82700000  0.60210000  0.97670000  1.0
  C  C311  1  0.79850000  0.68250000  0.97540000  1.0
  C  C312  1  0.77180000  0.69360000  0.94300000  1.0
  C  C313  1  0.90300000  0.84370000  0.96060000  1.0
  C  C314  1  0.85900000  0.77870000  0.93120000  1.0
  C  C315  1  0.07070000  0.87270000  0.96280000  1.0
  C  C316  1  0.05380000  0.99970000  0.95810000  1.0
  C  C317  1  0.15090000  0.02630000  0.95940000  1.0
  C  C318  1  0.08270000  0.14880000  0.95120000  1.0
  C  C319  1  0.22890000  0.12320000  0.95720000  1.0
  C  C320  1  0.77510000  0.17300000  0.31003000  1.0
  C  C321  1  0.88400000  0.20150000  0.30873000  1.0
  C  C322  1  0.92180000  0.22820000  0.27633000  1.0
  C  C323  1  0.94070000  0.09700000  0.29393000  1.0
  C  C324  1  0.91970000  0.14100000  0.26453000  1.0
  C  C325  1  0.80200000  0.92930000  0.29613000  1.0
  C  C326  1  0.94590000  0.94620000  0.29143000  1.0
  C  C327  1  0.87540000  0.84910000  0.29273000  1.0
  C  C328  1  0.06610000  0.91730000  0.28453000  1.0
  C  C329  1  0.89430000  0.77110000  0.29053000  1.0
  C  C330  1  0.60210000  0.77510000  0.14337000  1.0
  C  C331  1  0.68250000  0.88400000  0.14207000  1.0
  C  C332  1  0.69360000  0.92180000  0.10967000  1.0
  C  C333  1  0.84370000  0.94070000  0.12727000  1.0
  C  C334  1  0.77870000  0.91970000  0.09787000  1.0
  C  C335  1  0.87270000  0.80200000  0.12947000  1.0
  C  C336  1  0.99970000  0.94590000  0.12477000  1.0
  C  C337  1  0.02630000  0.87540000  0.12607000  1.0
  C  C338  1  0.14880000  0.06610000  0.11787000  1.0
  C  C339  1  0.12320000  0.89430000  0.12387000  1.0
  C  C340  1  0.17300000  0.39790000  0.47670000  1.0
  C  C341  1  0.20150000  0.31750000  0.47540000  1.0
  C  C342  1  0.22820000  0.30640000  0.44300000  1.0
  C  C343  1  0.09700000  0.15630000  0.46060000  1.0
  C  C344  1  0.14100000  0.22130000  0.43120000  1.0
  C  C345  1  0.92930000  0.12730000  0.46280000  1.0
  C  C346  1  0.94620000  0.00030000  0.45810000  1.0
  C  C347  1  0.84910000  0.97370000  0.45940000  1.0
  C  C348  1  0.91730000  0.85120000  0.45120000  1.0
  C  C349  1  0.77110000  0.87680000  0.45720000  1.0
  C  C350  1  0.22490000  0.82700000  0.81003000  1.0
  C  C351  1  0.11600000  0.79850000  0.80873000  1.0
  C  C352  1  0.07820000  0.77180000  0.77633000  1.0
  C  C353  1  0.05930000  0.90300000  0.79393000  1.0
  C  C354  1  0.08030000  0.85900000  0.76453000  1.0
  C  C355  1  0.19800000  0.07070000  0.79613000  1.0
  C  C356  1  0.05410000  0.05380000  0.79143000  1.0
  C  C357  1  0.12460000  0.15090000  0.79273000  1.0
  C  C358  1  0.93390000  0.08270000  0.78453000  1.0
  C  C359  1  0.10570000  0.22890000  0.79053000  1.0
  N  N360  1  0.10300000  0.09680000  0.03857000  1.0
  N  N361  1  0.21310000  0.05750000  0.03700000  1.0
  N  N362  1  0.95690000  0.94160000  0.04522000  1.0
  N  N363  1  0.00360000  0.81480000  0.04880000  1.0
  N  N364  1  0.83980000  0.78370000  0.05320000  1.0
  N  N365  1  0.90320000  0.00620000  0.70524000  1.0
  N  N366  1  0.94250000  0.15560000  0.70367000  1.0
  N  N367  1  0.05840000  0.01530000  0.71189000  1.0
  N  N368  1  0.18520000  0.18880000  0.71547000  1.0
  N  N369  1  0.21630000  0.05610000  0.71987000  1.0
  N  N370  1  0.99380000  0.89700000  0.37190000  1.0
  N  N371  1  0.84440000  0.78690000  0.37033000  1.0
  N  N372  1  0.98470000  0.04310000  0.37855000  1.0
  N  N373  1  0.81120000  0.99640000  0.38213000  1.0
  N  N374  1  0.94390000  0.16020000  0.38653000  1.0
  N  N375  1  0.89700000  0.90320000  0.53857000  1.0
  N  N376  1  0.78690000  0.94250000  0.53700000  1.0
  N  N377  1  0.04310000  0.05840000  0.54522000  1.0
  N  N378  1  0.99640000  0.18520000  0.54880000  1.0
  N  N379  1  0.16020000  0.21630000  0.55320000  1.0
  N  N380  1  0.09680000  0.99380000  0.20524000  1.0
  N  N381  1  0.05750000  0.84440000  0.20367000  1.0
  N  N382  1  0.94160000  0.98470000  0.21189000  1.0
  N  N383  1  0.81480000  0.81120000  0.21547000  1.0
  N  N384  1  0.78370000  0.94390000  0.21987000  1.0
  N  N385  1  0.00620000  0.10300000  0.87190000  1.0
  N  N386  1  0.15560000  0.21310000  0.87033000  1.0
  N  N387  1  0.01530000  0.95690000  0.87855000  1.0
  N  N388  1  0.18880000  0.00360000  0.88213000  1.0
  N  N389  1  0.05610000  0.83980000  0.88653000  1.0
  N  N390  1  0.09680000  0.10300000  0.62810000  1.0
  N  N391  1  0.05750000  0.21310000  0.62967000  1.0
  N  N392  1  0.94160000  0.95690000  0.62145000  1.0
  N  N393  1  0.81480000  0.00360000  0.61787000  1.0
  N  N394  1  0.78370000  0.83980000  0.61347000  1.0
  N  N395  1  0.00620000  0.90320000  0.96143000  1.0
  N  N396  1  0.15560000  0.94250000  0.96300000  1.0
  N  N397  1  0.01530000  0.05840000  0.95478000  1.0
  N  N398  1  0.18880000  0.18520000  0.95120000  1.0
  N  N399  1  0.05610000  0.21630000  0.94680000  1.0
  N  N400  1  0.89700000  0.99380000  0.29476000  1.0
  N  N401  1  0.78690000  0.84440000  0.29633000  1.0
  N  N402  1  0.04310000  0.98470000  0.28811000  1.0
  N  N403  1  0.99640000  0.81120000  0.28453000  1.0
  N  N404  1  0.16020000  0.94390000  0.28013000  1.0
  N  N405  1  0.90320000  0.89700000  0.12810000  1.0
  N  N406  1  0.94250000  0.78690000  0.12967000  1.0
  N  N407  1  0.05840000  0.04310000  0.12145000  1.0
  N  N408  1  0.18520000  0.99640000  0.11787000  1.0
  N  N409  1  0.21630000  0.16020000  0.11347000  1.0
  N  N410  1  0.99380000  0.09680000  0.46143000  1.0
  N  N411  1  0.84440000  0.05750000  0.46300000  1.0
  N  N412  1  0.98470000  0.94160000  0.45478000  1.0
  N  N413  1  0.81120000  0.81480000  0.45120000  1.0
  N  N414  1  0.94390000  0.78370000  0.44680000  1.0
  N  N415  1  0.10300000  0.00620000  0.79476000  1.0
  N  N416  1  0.21310000  0.15560000  0.79633000  1.0
  N  N417  1  0.95690000  0.01530000  0.78811000  1.0
  N  N418  1  0.00360000  0.18880000  0.78453000  1.0
  N  N419  1  0.83980000  0.05610000  0.78013000  1.0
  O  O420  1  0.40160000  0.54680000  0.05006000  1.0
  O  O421  1  0.58020000  0.61720000  0.07721000  1.0
  O  O422  1  0.49150000  0.72270000  0.06753000  1.0
  O  O423  1  0.58820000  0.59310000  0.02009000  1.0
  O  O424  1  0.44620000  0.42210000  0.03731000  1.0
  O  O425  1  0.27440000  0.37130000  0.04480000  1.0
  O  O426  1  0.61850000  0.43470000  0.01937000  1.0
  O  O427  1  0.10190000  0.22590000  0.01515000  1.0
  O  O428  1  0.97770000  0.28340000  0.05610000  1.0
  O  O429  1  0.01030000  0.16930000  0.09272000  1.0
  O  O430  1  0.15960000  0.84370000  0.04200000  1.0
  O  O431  1  0.18510000  0.74980000  0.99540000  1.0
  O  O432  1  0.45320000  0.85480000  0.71673000  1.0
  O  O433  1  0.38280000  0.96300000  0.74388000  1.0
  O  O434  1  0.27730000  0.76880000  0.73420000  1.0
  O  O435  1  0.40690000  0.99510000  0.68676000  1.0
  O  O436  1  0.57790000  0.02410000  0.70398000  1.0
  O  O437  1  0.62870000  0.90310000  0.71147000  1.0
  O  O438  1  0.56530000  0.18380000  0.68604000  1.0
  O  O439  1  0.77410000  0.87600000  0.68182000  1.0
  O  O440  1  0.71660000  0.69430000  0.72277000  1.0
  O  O441  1  0.83070000  0.84100000  0.75939000  1.0
  O  O442  1  0.15630000  0.31590000  0.70867000  1.0
  O  O443  1  0.25020000  0.43530000  0.66207000  1.0
  O  O444  1  0.14520000  0.59840000  0.38339000  1.0
  O  O445  1  0.03700000  0.41980000  0.41054000  1.0
  O  O446  1  0.23120000  0.50850000  0.40086000  1.0
  O  O447  1  0.00490000  0.41180000  0.35342000  1.0
  O  O448  1  0.97590000  0.55380000  0.37064000  1.0
  O  O449  1  0.09690000  0.72560000  0.37813000  1.0
  O  O450  1  0.81620000  0.38150000  0.35270000  1.0
  O  O451  1  0.12400000  0.89810000  0.34848000  1.0
  O  O452  1  0.30570000  0.02230000  0.38943000  1.0
  O  O453  1  0.15900000  0.98970000  0.42605000  1.0
  O  O454  1  0.68410000  0.84040000  0.37533000  1.0
  O  O455  1  0.56470000  0.81490000  0.32873000  1.0
  O  O456  1  0.59840000  0.45320000  0.55006000  1.0
  O  O457  1  0.41980000  0.38280000  0.57721000  1.0
  O  O458  1  0.50850000  0.27730000  0.56753000  1.0
  O  O459  1  0.41180000  0.40690000  0.52009000  1.0
  O  O460  1  0.55380000  0.57790000  0.53731000  1.0
  O  O461  1  0.72560000  0.62870000  0.54480000  1.0
  O  O462  1  0.38150000  0.56530000  0.51937000  1.0
  O  O463  1  0.89810000  0.77410000  0.51515000  1.0
  O  O464  1  0.02230000  0.71660000  0.55610000  1.0
  O  O465  1  0.98970000  0.83070000  0.59272000  1.0
  O  O466  1  0.84040000  0.15630000  0.54200000  1.0
  O  O467  1  0.81490000  0.25020000  0.49540000  1.0
  O  O468  1  0.54680000  0.14520000  0.21673000  1.0
  O  O469  1  0.61720000  0.03700000  0.24388000  1.0
  O  O470  1  0.72270000  0.23120000  0.23420000  1.0
  O  O471  1  0.59310000  0.00490000  0.18676000  1.0
  O  O472  1  0.42210000  0.97590000  0.20398000  1.0
  O  O473  1  0.37130000  0.09690000  0.21147000  1.0
  O  O474  1  0.43470000  0.81620000  0.18604000  1.0
  O  O475  1  0.22590000  0.12400000  0.18182000  1.0
  O  O476  1  0.28340000  0.30570000  0.22277000  1.0
  O  O477  1  0.16930000  0.15900000  0.25939000  1.0
  O  O478  1  0.84370000  0.68410000  0.20867000  1.0
  O  O479  1  0.74980000  0.56470000  0.16207000  1.0
  O  O480  1  0.85480000  0.40160000  0.88339000  1.0
  O  O481  1  0.96300000  0.58020000  0.91054000  1.0
  O  O482  1  0.76880000  0.49150000  0.90086000  1.0
  O  O483  1  0.99510000  0.58820000  0.85342000  1.0
  O  O484  1  0.02410000  0.44620000  0.87064000  1.0
  O  O485  1  0.90310000  0.27440000  0.87813000  1.0
  O  O486  1  0.18380000  0.61850000  0.85270000  1.0
  O  O487  1  0.87600000  0.10190000  0.84848000  1.0
  O  O488  1  0.69430000  0.97770000  0.88943000  1.0
  O  O489  1  0.84100000  0.01030000  0.92605000  1.0
  O  O490  1  0.31590000  0.15960000  0.87533000  1.0
  O  O491  1  0.43530000  0.18510000  0.82873000  1.0
  O  O492  1  0.54680000  0.40160000  0.61661000  1.0
  O  O493  1  0.61720000  0.58020000  0.58946000  1.0
  O  O494  1  0.72270000  0.49150000  0.59914000  1.0
  O  O495  1  0.59310000  0.58820000  0.64658000  1.0
  O  O496  1  0.42210000  0.44620000  0.62936000  1.0
  O  O497  1  0.37130000  0.27440000  0.62187000  1.0
  O  O498  1  0.43470000  0.61850000  0.64730000  1.0
  O  O499  1  0.22590000  0.10190000  0.65152000  1.0
  O  O500  1  0.28340000  0.97770000  0.61057000  1.0
  O  O501  1  0.16930000  0.01030000  0.57395000  1.0
  O  O502  1  0.84370000  0.15960000  0.62467000  1.0
  O  O503  1  0.74980000  0.18510000  0.67127000  1.0
  O  O504  1  0.85480000  0.45320000  0.94994000  1.0
  O  O505  1  0.96300000  0.38280000  0.92279000  1.0
  O  O506  1  0.76880000  0.27730000  0.93247000  1.0
  O  O507  1  0.99510000  0.40690000  0.97991000  1.0
  O  O508  1  0.02410000  0.57790000  0.96269000  1.0
  O  O509  1  0.90310000  0.62870000  0.95520000  1.0
  O  O510  1  0.18380000  0.56530000  0.98063000  1.0
  O  O511  1  0.87600000  0.77410000  0.98485000  1.0
  O  O512  1  0.69430000  0.71660000  0.94390000  1.0
  O  O513  1  0.84100000  0.83070000  0.90728000  1.0
  O  O514  1  0.31590000  0.15630000  0.95800000  1.0
  O  O515  1  0.43530000  0.25020000  0.00460000  1.0
  O  O516  1  0.59840000  0.14520000  0.28327000  1.0
  O  O517  1  0.41980000  0.03700000  0.25612000  1.0
  O  O518  1  0.50850000  0.23120000  0.26580000  1.0
  O  O519  1  0.41180000  0.00490000  0.31324000  1.0
  O  O520  1  0.55380000  0.97590000  0.29602000  1.0
  O  O521  1  0.72560000  0.09690000  0.28853000  1.0
  O  O522  1  0.38150000  0.81620000  0.31396000  1.0
  O  O523  1  0.89810000  0.12400000  0.31818000  1.0
  O  O524  1  0.02230000  0.30570000  0.27723000  1.0
  O  O525  1  0.98970000  0.15900000  0.24061000  1.0
  O  O526  1  0.84040000  0.68410000  0.29133000  1.0
  O  O527  1  0.81490000  0.56470000  0.33793000  1.0
  O  O528  1  0.45320000  0.59840000  0.11661000  1.0
  O  O529  1  0.38280000  0.41980000  0.08946000  1.0
  O  O530  1  0.27730000  0.50850000  0.09914000  1.0
  O  O531  1  0.40690000  0.41180000  0.14658000  1.0
  O  O532  1  0.57790000  0.55380000  0.12936000  1.0
  O  O533  1  0.62870000  0.72560000  0.12187000  1.0
  O  O534  1  0.56530000  0.38150000  0.14730000  1.0
  O  O535  1  0.77410000  0.89810000  0.15152000  1.0
  O  O536  1  0.71660000  0.02230000  0.11057000  1.0
  O  O537  1  0.83070000  0.98970000  0.07395000  1.0
  O  O538  1  0.15630000  0.84040000  0.12467000  1.0
  O  O539  1  0.25020000  0.81490000  0.17127000  1.0
  O  O540  1  0.14520000  0.54680000  0.44994000  1.0
  O  O541  1  0.03700000  0.61720000  0.42279000  1.0
  O  O542  1  0.23120000  0.72270000  0.43247000  1.0
  O  O543  1  0.00490000  0.59310000  0.47991000  1.0
  O  O544  1  0.97590000  0.42210000  0.46269000  1.0
  O  O545  1  0.09690000  0.37130000  0.45520000  1.0
  O  O546  1  0.81620000  0.43470000  0.48063000  1.0
  O  O547  1  0.12400000  0.22590000  0.48485000  1.0
  O  O548  1  0.30570000  0.28340000  0.44390000  1.0
  O  O549  1  0.15900000  0.16930000  0.40728000  1.0
  O  O550  1  0.68410000  0.84370000  0.45800000  1.0
  O  O551  1  0.56470000  0.74980000  0.50460000  1.0
  O  O552  1  0.40160000  0.85480000  0.78327000  1.0
  O  O553  1  0.58020000  0.96300000  0.75612000  1.0
  O  O554  1  0.49150000  0.76880000  0.76580000  1.0
  O  O555  1  0.58820000  0.99510000  0.81324000  1.0
  O  O556  1  0.44620000  0.02410000  0.79602000  1.0
  O  O557  1  0.27440000  0.90310000  0.78853000  1.0
  O  O558  1  0.61850000  0.18380000  0.81396000  1.0
  O  O559  1  0.10190000  0.87600000  0.81818000  1.0
  O  O560  1  0.97770000  0.69430000  0.77723000  1.0
  O  O561  1  0.01030000  0.84100000  0.74061000  1.0
  O  O562  1  0.15960000  0.31590000  0.79133000  1.0
  O  O563  1  0.18510000  0.43530000  0.83793000  1.0
  O  O564  1  0.56800000  0.43200000  0.08333000  1.0
  O  O565  1  0.56800000  0.13600000  0.75000000  1.0
  O  O566  1  0.86400000  0.43200000  0.41667000  1.0
  O  O567  1  0.43200000  0.56800000  0.58333000  1.0
  O  O568  1  0.43200000  0.86400000  0.25000000  1.0
  O  O569  1  0.13600000  0.56800000  0.91667000  1.0
