# generated using pymatgen
data_TbH12(C5O2)3
_symmetry_space_group_name_H-M   'P 1'
_cell_length_a   10.08200000
_cell_length_b   21.78700000
_cell_length_c   13.97700000
_cell_angle_alpha   91.59000000
_cell_angle_beta   90.00000000
_cell_angle_gamma   90.00000000
_symmetry_Int_Tables_number   1
_chemical_formula_structural   TbH12(C5O2)3
_chemical_formula_sum   'Tb8 H96 C120 O48'
_cell_volume   3068.95728935
_cell_formula_units_Z   8
loop_
 _symmetry_equiv_pos_site_id
 _symmetry_equiv_pos_as_xyz
  1  'x, y, z'
loop_
 _atom_site_type_symbol
 _atom_site_label
 _atom_site_symmetry_multiplicity
 _atom_site_fract_x
 _atom_site_fract_y
 _atom_site_fract_z
 _atom_site_occupancy
  Tb  Tb0  1  0.93600000  0.24034000  0.23054000  1.0
  Tb  Tb1  1  0.24922000  0.74873000  0.02738000  1.0
  Tb  Tb2  1  0.43600000  0.75966000  0.26946000  1.0
  Tb  Tb3  1  0.74922000  0.25127000  0.47262000  1.0
  Tb  Tb4  1  0.06400000  0.75966000  0.76946000  1.0
  Tb  Tb5  1  0.75078000  0.25127000  0.97262000  1.0
  Tb  Tb6  1  0.56400000  0.24034000  0.73054000  1.0
  Tb  Tb7  1  0.25078000  0.74873000  0.52738000  1.0
  H  H8  1  0.59890000  0.57170000  0.90450000  1.0
  H  H9  1  0.86980000  0.87140000  0.09050000  1.0
  H  H10  1  0.80070000  0.87610000  0.99040000  1.0
  H  H11  1  0.58420000  0.61610000  0.14970000  1.0
  H  H12  1  0.65030000  0.63400000  0.05290000  1.0
  H  H13  1  0.91700000  0.97220000  0.14630000  1.0
  H  H14  1  0.21170000  0.54340000  0.19040000  1.0
  H  H15  1  0.00040000  0.65860000  0.28850000  1.0
  H  H16  1  0.13990000  0.62900000  0.30580000  1.0
  H  H17  1  0.83460000  0.59610000  0.20830000  1.0
  H  H18  1  0.99960000  0.93080000  0.87190000  1.0
  H  H19  1  0.64240000  0.96460000  0.13630000  1.0
  H  H20  1  0.31790000  0.92250000  0.05720000  1.0
  H  H21  1  0.46490000  0.90920000  0.02800000  1.0
  H  H22  1  0.70210000  0.06110000  0.19010000  1.0
  H  H23  1  0.32260000  0.11440000  0.18000000  1.0
  H  H24  1  0.26470000  0.01650000  0.12600000  1.0
  H  H25  1  0.76960000  0.50530000  0.13290000  1.0
  H  H26  1  0.14680000  0.45230000  0.11770000  1.0
  H  H27  1  0.95990000  0.40370000  0.01140000  1.0
  H  H28  1  0.81610000  0.41370000  0.05070000  1.0
  H  H29  1  0.61510000  0.16090000  0.27770000  1.0
  H  H30  1  0.48280000  0.18720000  0.23600000  1.0
  H  H31  1  0.45950000  0.52280000  0.15930000  1.0
  H  H32  1  0.09890000  0.42830000  0.59550000  1.0
  H  H33  1  0.36980000  0.12860000  0.40950000  1.0
  H  H34  1  0.30070000  0.12390000  0.50960000  1.0
  H  H35  1  0.08420000  0.38390000  0.35030000  1.0
  H  H36  1  0.15030000  0.36600000  0.44710000  1.0
  H  H37  1  0.41700000  0.02780000  0.35370000  1.0
  H  H38  1  0.71170000  0.45660000  0.30960000  1.0
  H  H39  1  0.50040000  0.34140000  0.21150000  1.0
  H  H40  1  0.63990000  0.37100000  0.19420000  1.0
  H  H41  1  0.33460000  0.40390000  0.29170000  1.0
  H  H42  1  0.49960000  0.06920000  0.62810000  1.0
  H  H43  1  0.14240000  0.03540000  0.36370000  1.0
  H  H44  1  0.81790000  0.07750000  0.44280000  1.0
  H  H45  1  0.96490000  0.09080000  0.47200000  1.0
  H  H46  1  0.20210000  0.93890000  0.30990000  1.0
  H  H47  1  0.82260000  0.88560000  0.32000000  1.0
  H  H48  1  0.76470000  0.98350000  0.37400000  1.0
  H  H49  1  0.26960000  0.49470000  0.36710000  1.0
  H  H50  1  0.64680000  0.54770000  0.38230000  1.0
  H  H51  1  0.45990000  0.59630000  0.48860000  1.0
  H  H52  1  0.31610000  0.58630000  0.44930000  1.0
  H  H53  1  0.11510000  0.83910000  0.22230000  1.0
  H  H54  1  0.98280000  0.81280000  0.26400000  1.0
  H  H55  1  0.95950000  0.47720000  0.34070000  1.0
  H  H56  1  0.40110000  0.42830000  0.09550000  1.0
  H  H57  1  0.13020000  0.12860000  0.90950000  1.0
  H  H58  1  0.19930000  0.12390000  0.00960000  1.0
  H  H59  1  0.41580000  0.38390000  0.85030000  1.0
  H  H60  1  0.34970000  0.36600000  0.94710000  1.0
  H  H61  1  0.08300000  0.02780000  0.85370000  1.0
  H  H62  1  0.78830000  0.45660000  0.80960000  1.0
  H  H63  1  0.99960000  0.34140000  0.71150000  1.0
  H  H64  1  0.86010000  0.37100000  0.69420000  1.0
  H  H65  1  0.16540000  0.40390000  0.79170000  1.0
  H  H66  1  0.00040000  0.06920000  0.12810000  1.0
  H  H67  1  0.35760000  0.03540000  0.86370000  1.0
  H  H68  1  0.68210000  0.07750000  0.94280000  1.0
  H  H69  1  0.53510000  0.09080000  0.97200000  1.0
  H  H70  1  0.29790000  0.93890000  0.80990000  1.0
  H  H71  1  0.67740000  0.88560000  0.82000000  1.0
  H  H72  1  0.73530000  0.98350000  0.87400000  1.0
  H  H73  1  0.23040000  0.49470000  0.86710000  1.0
  H  H74  1  0.85320000  0.54770000  0.88230000  1.0
  H  H75  1  0.04010000  0.59630000  0.98860000  1.0
  H  H76  1  0.18390000  0.58630000  0.94930000  1.0
  H  H77  1  0.38490000  0.83910000  0.72230000  1.0
  H  H78  1  0.51720000  0.81280000  0.76400000  1.0
  H  H79  1  0.54050000  0.47720000  0.84070000  1.0
  H  H80  1  0.90110000  0.57170000  0.40450000  1.0
  H  H81  1  0.63020000  0.87140000  0.59050000  1.0
  H  H82  1  0.69930000  0.87610000  0.49040000  1.0
  H  H83  1  0.91580000  0.61610000  0.64970000  1.0
  H  H84  1  0.84970000  0.63400000  0.55290000  1.0
  H  H85  1  0.58300000  0.97220000  0.64630000  1.0
  H  H86  1  0.28830000  0.54340000  0.69040000  1.0
  H  H87  1  0.49960000  0.65860000  0.78850000  1.0
  H  H88  1  0.36010000  0.62900000  0.80580000  1.0
  H  H89  1  0.66540000  0.59610000  0.70830000  1.0
  H  H90  1  0.50040000  0.93080000  0.37190000  1.0
  H  H91  1  0.85760000  0.96460000  0.63630000  1.0
  H  H92  1  0.18210000  0.92250000  0.55720000  1.0
  H  H93  1  0.03510000  0.90920000  0.52800000  1.0
  H  H94  1  0.79790000  0.06110000  0.69010000  1.0
  H  H95  1  0.17740000  0.11440000  0.68000000  1.0
  H  H96  1  0.23530000  0.01650000  0.62600000  1.0
  H  H97  1  0.73040000  0.50530000  0.63290000  1.0
  H  H98  1  0.35320000  0.45230000  0.61770000  1.0
  H  H99  1  0.54010000  0.40370000  0.51140000  1.0
  H  H100  1  0.68390000  0.41370000  0.55070000  1.0
  H  H101  1  0.88490000  0.16090000  0.77770000  1.0
  H  H102  1  0.01720000  0.18720000  0.73600000  1.0
  H  H103  1  0.04050000  0.52280000  0.65930000  1.0
  C  C104  1  0.55910000  0.54290000  0.94320000  1.0
  C  C105  1  0.97610000  0.82800000  0.98280000  1.0
  C  C106  1  0.13650000  0.68210000  0.18820000  1.0
  C  C107  1  0.46120000  0.66610000  0.06640000  1.0
  C  C108  1  0.88550000  0.87810000  0.02310000  1.0
  C  C109  1  0.53560000  0.55730000  0.03940000  1.0
  C  C110  1  0.56880000  0.61960000  0.08160000  1.0
  C  C111  1  0.94670000  0.94100000  0.01110000  1.0
  C  C112  1  0.94990000  0.98330000  0.08710000  1.0
  C  C113  1  0.02910000  0.57960000  0.20720000  1.0
  C  C114  1  0.12210000  0.53590000  0.17950000  1.0
  C  C115  1  0.07540000  0.63870000  0.25700000  1.0
  C  C116  1  0.41100000  0.86620000  0.14870000  1.0
  C  C117  1  0.89850000  0.56730000  0.18990000  1.0
  C  C118  1  0.99910000  0.95860000  0.92360000  1.0
  C  C119  1  0.44800000  0.98090000  0.12290000  1.0
  C  C120  1  0.57780000  0.99470000  0.14400000  1.0
  C  C121  1  0.40750000  0.91910000  0.08190000  1.0
  C  C122  1  0.51940000  0.09890000  0.18870000  1.0
  C  C123  1  0.61360000  0.05270000  0.17630000  1.0
  C  C124  1  0.38790000  0.08470000  0.17050000  1.0
  C  C125  1  0.35330000  0.02570000  0.13790000  1.0
  C  C126  1  0.85900000  0.51240000  0.14500000  1.0
  C  C127  1  0.08290000  0.48110000  0.13580000  1.0
  C  C128  1  0.95150000  0.46850000  0.11850000  1.0
  C  C129  1  0.90820000  0.40940000  0.06950000  1.0
  C  C130  1  0.92080000  0.35220000  0.12700000  1.0
  C  C131  1  0.56070000  0.16280000  0.22060000  1.0
  C  C132  1  0.63810000  0.19240000  0.14180000  1.0
  C  C133  1  0.47610000  0.51380000  0.09500000  1.0
  C  C134  1  0.05910000  0.45710000  0.55680000  1.0
  C  C135  1  0.47610000  0.17200000  0.51720000  1.0
  C  C136  1  0.63650000  0.31790000  0.31180000  1.0
  C  C137  1  0.96120000  0.33390000  0.43360000  1.0
  C  C138  1  0.38550000  0.12190000  0.47690000  1.0
  C  C139  1  0.03560000  0.44270000  0.46060000  1.0
  C  C140  1  0.06880000  0.38040000  0.41840000  1.0
  C  C141  1  0.44670000  0.05900000  0.48890000  1.0
  C  C142  1  0.44990000  0.01670000  0.41290000  1.0
  C  C143  1  0.52910000  0.42040000  0.29280000  1.0
  C  C144  1  0.62210000  0.46410000  0.32050000  1.0
  C  C145  1  0.57540000  0.36130000  0.24300000  1.0
  C  C146  1  0.91100000  0.13380000  0.35130000  1.0
  C  C147  1  0.39850000  0.43270000  0.31010000  1.0
  C  C148  1  0.49910000  0.04140000  0.57640000  1.0
  C  C149  1  0.94800000  0.01910000  0.37710000  1.0
  C  C150  1  0.07780000  0.00530000  0.35600000  1.0
  C  C151  1  0.90750000  0.08090000  0.41810000  1.0
  C  C152  1  0.01940000  0.90110000  0.31130000  1.0
  C  C153  1  0.11360000  0.94730000  0.32370000  1.0
  C  C154  1  0.88790000  0.91530000  0.32950000  1.0
  C  C155  1  0.85330000  0.97430000  0.36210000  1.0
  C  C156  1  0.35900000  0.48760000  0.35500000  1.0
  C  C157  1  0.58290000  0.51890000  0.36420000  1.0
  C  C158  1  0.45150000  0.53150000  0.38150000  1.0
  C  C159  1  0.40820000  0.59060000  0.43050000  1.0
  C  C160  1  0.42080000  0.64780000  0.37300000  1.0
  C  C161  1  0.06070000  0.83720000  0.27940000  1.0
  C  C162  1  0.13810000  0.80760000  0.35820000  1.0
  C  C163  1  0.97610000  0.48620000  0.40500000  1.0
  C  C164  1  0.44090000  0.45710000  0.05680000  1.0
  C  C165  1  0.02390000  0.17200000  0.01720000  1.0
  C  C166  1  0.86350000  0.31790000  0.81180000  1.0
  C  C167  1  0.53880000  0.33390000  0.93360000  1.0
  C  C168  1  0.11450000  0.12190000  0.97690000  1.0
  C  C169  1  0.46440000  0.44270000  0.96060000  1.0
  C  C170  1  0.43120000  0.38040000  0.91840000  1.0
  C  C171  1  0.05330000  0.05900000  0.98890000  1.0
  C  C172  1  0.05010000  0.01670000  0.91290000  1.0
  C  C173  1  0.97090000  0.42040000  0.79280000  1.0
  C  C174  1  0.87790000  0.46410000  0.82050000  1.0
  C  C175  1  0.92460000  0.36130000  0.74300000  1.0
  C  C176  1  0.58900000  0.13380000  0.85130000  1.0
  C  C177  1  0.10150000  0.43270000  0.81010000  1.0
  C  C178  1  0.00090000  0.04140000  0.07640000  1.0
  C  C179  1  0.55200000  0.01910000  0.87710000  1.0
  C  C180  1  0.42220000  0.00530000  0.85600000  1.0
  C  C181  1  0.59250000  0.08090000  0.91810000  1.0
  C  C182  1  0.48060000  0.90110000  0.81130000  1.0
  C  C183  1  0.38640000  0.94730000  0.82370000  1.0
  C  C184  1  0.61210000  0.91530000  0.82950000  1.0
  C  C185  1  0.64670000  0.97430000  0.86210000  1.0
  C  C186  1  0.14100000  0.48760000  0.85500000  1.0
  C  C187  1  0.91710000  0.51890000  0.86420000  1.0
  C  C188  1  0.04850000  0.53150000  0.88150000  1.0
  C  C189  1  0.09180000  0.59060000  0.93050000  1.0
  C  C190  1  0.07920000  0.64780000  0.87300000  1.0
  C  C191  1  0.43930000  0.83720000  0.77940000  1.0
  C  C192  1  0.36190000  0.80760000  0.85820000  1.0
  C  C193  1  0.52390000  0.48620000  0.90500000  1.0
  C  C194  1  0.94090000  0.54290000  0.44320000  1.0
  C  C195  1  0.52390000  0.82800000  0.48280000  1.0
  C  C196  1  0.36350000  0.68210000  0.68820000  1.0
  C  C197  1  0.03880000  0.66610000  0.56640000  1.0
  C  C198  1  0.61450000  0.87810000  0.52310000  1.0
  C  C199  1  0.96440000  0.55730000  0.53940000  1.0
  C  C200  1  0.93120000  0.61960000  0.58160000  1.0
  C  C201  1  0.55330000  0.94100000  0.51110000  1.0
  C  C202  1  0.55010000  0.98330000  0.58710000  1.0
  C  C203  1  0.47090000  0.57960000  0.70720000  1.0
  C  C204  1  0.37790000  0.53590000  0.67950000  1.0
  C  C205  1  0.42460000  0.63870000  0.75700000  1.0
  C  C206  1  0.08900000  0.86620000  0.64870000  1.0
  C  C207  1  0.60150000  0.56730000  0.68990000  1.0
  C  C208  1  0.50090000  0.95860000  0.42360000  1.0
  C  C209  1  0.05200000  0.98090000  0.62290000  1.0
  C  C210  1  0.92220000  0.99470000  0.64400000  1.0
  C  C211  1  0.09250000  0.91910000  0.58190000  1.0
  C  C212  1  0.98060000  0.09890000  0.68870000  1.0
  C  C213  1  0.88640000  0.05270000  0.67630000  1.0
  C  C214  1  0.11210000  0.08470000  0.67050000  1.0
  C  C215  1  0.14670000  0.02570000  0.63790000  1.0
  C  C216  1  0.64100000  0.51240000  0.64500000  1.0
  C  C217  1  0.41710000  0.48110000  0.63580000  1.0
  C  C218  1  0.54850000  0.46850000  0.61850000  1.0
  C  C219  1  0.59180000  0.40940000  0.56950000  1.0
  C  C220  1  0.57920000  0.35220000  0.62700000  1.0
  C  C221  1  0.93930000  0.16280000  0.72060000  1.0
  C  C222  1  0.86190000  0.19240000  0.64180000  1.0
  C  C223  1  0.02390000  0.51380000  0.59500000  1.0
  O  O224  1  0.32890000  0.82333000  0.13470000  1.0
  O  O225  1  0.06840000  0.81148000  0.03540000  1.0
  O  O226  1  0.08710000  0.68740000  0.10730000  1.0
  O  O227  1  0.23530000  0.71445000  0.21010000  1.0
  O  O228  1  0.46930000  0.71787000  0.11110000  1.0
  O  O229  1  0.36660000  0.65476000  0.01300000  1.0
  O  O230  1  0.49140000  0.86340000  0.21520000  1.0
  O  O231  1  0.04550000  0.19292000  0.09990000  1.0
  O  O232  1  0.98100000  0.35080000  0.20330000  1.0
  O  O233  1  0.86630000  0.30255000  0.09500000  1.0
  O  O234  1  0.76240000  0.18999000  0.13900000  1.0
  O  O235  1  0.57600000  0.21760000  0.07530000  1.0
  O  O236  1  0.82890000  0.17667000  0.36530000  1.0
  O  O237  1  0.56840000  0.18852000  0.46460000  1.0
  O  O238  1  0.58710000  0.31260000  0.39270000  1.0
  O  O239  1  0.73530000  0.28555000  0.28990000  1.0
  O  O240  1  0.96930000  0.28213000  0.38890000  1.0
  O  O241  1  0.86660000  0.34524000  0.48700000  1.0
  O  O242  1  0.99140000  0.13660000  0.28480000  1.0
  O  O243  1  0.54550000  0.80708000  0.40010000  1.0
  O  O244  1  0.48100000  0.64920000  0.29670000  1.0
  O  O245  1  0.36630000  0.69745000  0.40500000  1.0
  O  O246  1  0.26240000  0.81001000  0.36100000  1.0
  O  O247  1  0.07600000  0.78240000  0.42470000  1.0
  O  O248  1  0.67110000  0.17667000  0.86530000  1.0
  O  O249  1  0.93160000  0.18852000  0.96460000  1.0
  O  O250  1  0.91290000  0.31260000  0.89270000  1.0
  O  O251  1  0.76470000  0.28555000  0.78990000  1.0
  O  O252  1  0.53070000  0.28213000  0.88890000  1.0
  O  O253  1  0.63340000  0.34524000  0.98700000  1.0
  O  O254  1  0.50860000  0.13660000  0.78480000  1.0
  O  O255  1  0.95450000  0.80708000  0.90010000  1.0
  O  O256  1  0.01900000  0.64920000  0.79670000  1.0
  O  O257  1  0.13370000  0.69745000  0.90500000  1.0
  O  O258  1  0.23760000  0.81001000  0.86100000  1.0
  O  O259  1  0.42400000  0.78240000  0.92470000  1.0
  O  O260  1  0.17110000  0.82333000  0.63470000  1.0
  O  O261  1  0.43160000  0.81148000  0.53540000  1.0
  O  O262  1  0.41290000  0.68740000  0.60730000  1.0
  O  O263  1  0.26470000  0.71445000  0.71010000  1.0
  O  O264  1  0.03070000  0.71787000  0.61110000  1.0
  O  O265  1  0.13340000  0.65476000  0.51300000  1.0
  O  O266  1  0.00860000  0.86340000  0.71520000  1.0
  O  O267  1  0.45450000  0.19292000  0.59990000  1.0
  O  O268  1  0.51900000  0.35080000  0.70330000  1.0
  O  O269  1  0.63370000  0.30255000  0.59500000  1.0
  O  O270  1  0.73760000  0.18999000  0.63900000  1.0
  O  O271  1  0.92400000  0.21760000  0.57530000  1.0
