# generated using pymatgen
data_AlH4C8O4F
_symmetry_space_group_name_H-M   'P 1'
_cell_length_a   13.14850000
_cell_length_b   16.40800000
_cell_length_c   13.34400000
_cell_angle_alpha   90.00000000
_cell_angle_beta   90.00000000
_cell_angle_gamma   90.00000000
_symmetry_Int_Tables_number   1
_chemical_formula_structural   AlH4C8O4F
_chemical_formula_sum   'Al8 H32 C64 O32 F8'
_cell_volume   2878.84240627
_cell_formula_units_Z   8
loop_
 _symmetry_equiv_pos_site_id
 _symmetry_equiv_pos_as_xyz
  1  'x, y, z'
loop_
 _atom_site_type_symbol
 _atom_site_label
 _atom_site_symmetry_multiplicity
 _atom_site_fract_x
 _atom_site_fract_y
 _atom_site_fract_z
 _atom_site_occupancy
  Al  Al0  1  0.11861000  0.24867000  0.74855000  1.0
  Al  Al1  1  0.36921000  0.74869000  0.24870000  1.0
  Al  Al2  1  0.36861000  0.24867000  0.74873000  1.0
  Al  Al3  1  0.11921000  0.74868000  0.24864000  1.0
  Al  Al4  1  0.61862000  0.24867000  0.74854000  1.0
  Al  Al5  1  0.86922000  0.74869000  0.24868000  1.0
  Al  Al6  1  0.86863000  0.24867000  0.74876000  1.0
  Al  Al7  1  0.61922000  0.74869000  0.24865000  1.0
  H  H8  1  0.40444000  0.45765000  0.58413000  1.0
  H  H9  1  0.40217000  0.57894000  0.46899000  1.0
  H  H10  1  0.08346000  0.54100000  0.41506000  1.0
  H  H11  1  0.08573000  0.41972000  0.53018000  1.0
  H  H12  1  0.40191000  0.07910000  0.52870000  1.0
  H  H13  1  0.08329000  0.04044000  0.58243000  1.0
  H  H14  1  0.15182000  0.07809000  0.96714000  1.0
  H  H15  1  0.33596000  0.91821000  0.02865000  1.0
  H  H16  1  0.15462000  0.95686000  0.08233000  1.0
  H  H17  1  0.33315000  0.03948000  0.91352000  1.0
  H  H18  1  0.33575000  0.41832000  0.96918000  1.0
  H  H19  1  0.15441000  0.45636000  0.91497000  1.0
  H  H20  1  0.08610000  0.91916000  0.46731000  1.0
  H  H21  1  0.40470000  0.95784000  0.41354000  1.0
  H  H22  1  0.15217000  0.57765000  0.03007000  1.0
  H  H23  1  0.33350000  0.53960000  0.08431000  1.0
  H  H24  1  0.90450000  0.45768000  0.58415000  1.0
  H  H25  1  0.90222000  0.57895000  0.46900000  1.0
  H  H26  1  0.58352000  0.54101000  0.41506000  1.0
  H  H27  1  0.58579000  0.41973000  0.53018000  1.0
  H  H28  1  0.90198000  0.07911000  0.52868000  1.0
  H  H29  1  0.58336000  0.04044000  0.58243000  1.0
  H  H30  1  0.65181000  0.07805000  0.96708000  1.0
  H  H31  1  0.83600000  0.91819000  0.02860000  1.0
  H  H32  1  0.65461000  0.95683000  0.08228000  1.0
  H  H33  1  0.83318000  0.03947000  0.91349000  1.0
  H  H34  1  0.83577000  0.41830000  0.96919000  1.0
  H  H35  1  0.65440000  0.45635000  0.91499000  1.0
  H  H36  1  0.58617000  0.91917000  0.46731000  1.0
  H  H37  1  0.90477000  0.95785000  0.41352000  1.0
  H  H38  1  0.65216000  0.57763000  0.03011000  1.0
  H  H39  1  0.83352000  0.53960000  0.08431000  1.0
  C  C40  1  0.40295000  0.02087000  0.95103000  1.0
  C  C41  1  0.99238000  0.06551000  0.93381000  1.0
  C  C42  1  0.49073000  0.13724000  0.86512000  1.0
  C  C43  1  0.08356000  0.54215000  0.01638000  1.0
  C  C44  1  0.15313000  0.52226000  0.45269000  1.0
  C  C45  1  0.24270000  0.56672000  0.43554000  1.0
  C  C46  1  0.24126000  0.63828000  0.36660000  1.0
  C  C47  1  0.33342000  0.04349000  0.51482000  1.0
  C  C48  1  0.08476000  0.47508000  0.95266000  1.0
  C  C49  1  0.49519000  0.43059000  0.93559000  1.0
  C  C50  1  0.99661000  0.35901000  0.86667000  1.0
  C  C51  1  0.40446000  0.95381000  0.01476000  1.0
  C  C52  1  0.33492000  0.97643000  0.45109000  1.0
  C  C53  1  0.24553000  0.93177000  0.43392000  1.0
  C  C54  1  0.24715000  0.86004000  0.36525000  1.0
  C  C55  1  0.15435000  0.45520000  0.51642000  1.0
  C  C56  1  0.08485000  0.97542000  0.04474000  1.0
  C  C57  1  0.49544000  0.93075000  0.06193000  1.0
  C  C58  1  0.99712000  0.85912000  0.13077000  1.0
  C  C59  1  0.40437000  0.45379000  0.98293000  1.0
  C  C60  1  0.33476000  0.47642000  0.54654000  1.0
  C  C61  1  0.24520000  0.43194000  0.56365000  1.0
  C  C62  1  0.24662000  0.36014000  0.63222000  1.0
  C  C63  1  0.15457000  0.95481000  0.48112000  1.0
  C  C64  1  0.40317000  0.52086000  0.04666000  1.0
  C  C65  1  0.99272000  0.56539000  0.06367000  1.0
  C  C66  1  0.49129000  0.63721000  0.13224000  1.0
  C  C67  1  0.08335000  0.04246000  0.98099000  1.0
  C  C68  1  0.15306000  0.02187000  0.54484000  1.0
  C  C69  1  0.24244000  0.06656000  0.56200000  1.0
  C  C70  1  0.24076000  0.13823000  0.63076000  1.0
  C  C71  1  0.33354000  0.54349000  0.48281000  1.0
  C  C72  1  0.90297000  0.02086000  0.95102000  1.0
  C  C73  1  0.49235000  0.06550000  0.93379000  1.0
  C  C74  1  0.99075000  0.13726000  0.86516000  1.0
  C  C75  1  0.58355000  0.54214000  0.01640000  1.0
  C  C76  1  0.65319000  0.52227000  0.45270000  1.0
  C  C77  1  0.74275000  0.56672000  0.43554000  1.0
  C  C78  1  0.74129000  0.63830000  0.36662000  1.0
  C  C79  1  0.83349000  0.04350000  0.51482000  1.0
  C  C80  1  0.58474000  0.47507000  0.95268000  1.0
  C  C81  1  0.99521000  0.43058000  0.93560000  1.0
  C  C82  1  0.49660000  0.35901000  0.86666000  1.0
  C  C83  1  0.90449000  0.95380000  0.01474000  1.0
  C  C84  1  0.83499000  0.97645000  0.45108000  1.0
  C  C85  1  0.74560000  0.93177000  0.43391000  1.0
  C  C86  1  0.74720000  0.86006000  0.36522000  1.0
  C  C87  1  0.65440000  0.45521000  0.51642000  1.0
  C  C88  1  0.58484000  0.97540000  0.04471000  1.0
  C  C89  1  0.99546000  0.93075000  0.06193000  1.0
  C  C90  1  0.49710000  0.85912000  0.13078000  1.0
  C  C91  1  0.90439000  0.45379000  0.98294000  1.0
  C  C92  1  0.83481000  0.47644000  0.54656000  1.0
  C  C93  1  0.74526000  0.43196000  0.56367000  1.0
  C  C94  1  0.74666000  0.36016000  0.63225000  1.0
  C  C95  1  0.65464000  0.95482000  0.48112000  1.0
  C  C96  1  0.90319000  0.52086000  0.04666000  1.0
  C  C97  1  0.49271000  0.56538000  0.06369000  1.0
  C  C98  1  0.99129000  0.63722000  0.13221000  1.0
  C  C99  1  0.58333000  0.04244000  0.98095000  1.0
  C  C100  1  0.65313000  0.02188000  0.54483000  1.0
  C  C101  1  0.74251000  0.06657000  0.56199000  1.0
  C  C102  1  0.74080000  0.13825000  0.63074000  1.0
  C  C103  1  0.83360000  0.54350000  0.48282000  1.0
  O  O104  1  0.07537000  0.17207000  0.84658000  1.0
  O  O105  1  0.40514000  0.65884000  0.16722000  1.0
  O  O106  1  0.32589000  0.67306000  0.34794000  1.0
  O  O107  1  0.15449000  0.15971000  0.66561000  1.0
  O  O108  1  0.41195000  0.32425000  0.84801000  1.0
  O  O109  1  0.08336000  0.83770000  0.16576000  1.0
  O  O110  1  0.16256000  0.82514000  0.34679000  1.0
  O  O111  1  0.33275000  0.33856000  0.66728000  1.0
  O  O112  1  0.41252000  0.82431000  0.14949000  1.0
  O  O113  1  0.08276000  0.33760000  0.83150000  1.0
  O  O114  1  0.16196000  0.32531000  0.65059000  1.0
  O  O115  1  0.33333333  0.83856000  0.33020000  1.0
  O  O116  1  0.07594000  0.67206000  0.15059000  1.0
  O  O117  1  0.40453000  0.15882000  0.83022000  1.0
  O  O118  1  0.32534000  0.17305000  0.64950000  1.0
  O  O119  1  0.15508000  0.65969000  0.33148000  1.0
  O  O120  1  0.57536000  0.17204000  0.84653000  1.0
  O  O121  1  0.90515000  0.65884000  0.16721000  1.0
  O  O122  1  0.82593000  0.67307000  0.34793000  1.0
  O  O123  1  0.65453000  0.15973000  0.66557000  1.0
  O  O124  1  0.91197000  0.32422000  0.84806000  1.0
  O  O125  1  0.58334000  0.83770000  0.16576000  1.0
  O  O126  1  0.66260000  0.82516000  0.34678000  1.0
  O  O127  1  0.83278000  0.33857000  0.66733000  1.0
  O  O128  1  0.91254000  0.82430000  0.14946000  1.0
  O  O129  1  0.58275000  0.33759000  0.83151000  1.0
  O  O130  1  0.66199000  0.32533000  0.65060000  1.0
  O  O131  1  0.83337000  0.83857000  0.33016000  1.0
  O  O132  1  0.57594000  0.67204000  0.15064000  1.0
  O  O133  1  0.90455000  0.15882000  0.83024000  1.0
  O  O134  1  0.82538000  0.17306000  0.64951000  1.0
  O  O135  1  0.65511000  0.65971000  0.33152000  1.0
  F  F136  1  0.99357000  0.24916000  0.68869000  1.0
  F  F137  1  0.24423000  0.74829000  0.18873000  1.0
  F  F138  1  0.49419000  0.74918000  0.30861000  1.0
  F  F139  1  0.24358000  0.24816000  0.80859000  1.0
  F  F140  1  0.49357000  0.24917000  0.68867000  1.0
  F  F141  1  0.74423000  0.74828000  0.18873000  1.0
  F  F142  1  0.99420000  0.74917000  0.30859000  1.0
  F  F143  1  0.74358000  0.24814000  0.80860000  1.0
