# generated using pymatgen
data_K4Zn2H16C32O17
_symmetry_space_group_name_H-M   'P 1'
_cell_length_a   19.76400000
_cell_length_b   19.94800000
_cell_length_c   12.03900000
_cell_angle_alpha   90.00000000
_cell_angle_beta   90.00000000
_cell_angle_gamma   90.00000000
_symmetry_Int_Tables_number   1
_chemical_formula_structural   K4Zn2H16C32O17
_chemical_formula_sum   'K16 Zn8 H64 C128 O68'
_cell_volume   4746.40310261
_cell_formula_units_Z   4
loop_
 _symmetry_equiv_pos_site_id
 _symmetry_equiv_pos_as_xyz
  1  'x, y, z'
loop_
 _atom_site_type_symbol
 _atom_site_label
 _atom_site_symmetry_multiplicity
 _atom_site_fract_x
 _atom_site_fract_y
 _atom_site_fract_z
 _atom_site_occupancy
  K  K0  1  0.19622000  0.94407000  0.28540000  1.0
  K  K1  1  0.35800000  0.90066000  0.77280000  1.0
  K  K2  1  0.69622000  0.44407000  0.28540000  1.0
  K  K3  1  0.85800000  0.40066000  0.77280000  1.0
  K  K4  1  0.80378000  0.05593000  0.78540000  1.0
  K  K5  1  0.64200000  0.09934000  0.27280000  1.0
  K  K6  1  0.30378000  0.55593000  0.78540000  1.0
  K  K7  1  0.14200000  0.59934000  0.27280000  1.0
  K  K8  1  0.19622000  0.05593000  0.78540000  1.0
  K  K9  1  0.35800000  0.09934000  0.27280000  1.0
  K  K10  1  0.69622000  0.55593000  0.78540000  1.0
  K  K11  1  0.85800000  0.59934000  0.27280000  1.0
  K  K12  1  0.80378000  0.94407000  0.28540000  1.0
  K  K13  1  0.64200000  0.90066000  0.77280000  1.0
  K  K14  1  0.30378000  0.44407000  0.28540000  1.0
  K  K15  1  0.14200000  0.40066000  0.77280000  1.0
  Zn  Zn16  1  0.25821000  0.99203000  0.03076000  1.0
  Zn  Zn17  1  0.75821000  0.49203000  0.03076000  1.0
  Zn  Zn18  1  0.74179000  0.00797000  0.53076000  1.0
  Zn  Zn19  1  0.24179000  0.50797000  0.53076000  1.0
  Zn  Zn20  1  0.25821000  0.00797000  0.53076000  1.0
  Zn  Zn21  1  0.75821000  0.50797000  0.53076000  1.0
  Zn  Zn22  1  0.74179000  0.99203000  0.03076000  1.0
  Zn  Zn23  1  0.24179000  0.49203000  0.03076000  1.0
  H  H24  1  0.30930000  0.74280000  0.40060000  1.0
  H  H25  1  0.30170000  0.73670000  0.01530000  1.0
  H  H26  1  0.30440000  0.84310000  0.29810000  1.0
  H  H27  1  0.10140000  0.93780000  0.77590000  1.0
  H  H28  1  0.29590000  0.64000000  0.30830000  1.0
  H  H29  1  0.39890000  0.05360000  0.73770000  1.0
  H  H30  1  0.80930000  0.24280000  0.40060000  1.0
  H  H31  1  0.80170000  0.23670000  0.01530000  1.0
  H  H32  1  0.80440000  0.34310000  0.29810000  1.0
  H  H33  1  0.60140000  0.43780000  0.77590000  1.0
  H  H34  1  0.79590000  0.14000000  0.30830000  1.0
  H  H35  1  0.89890000  0.55360000  0.73770000  1.0
  H  H36  1  0.69070000  0.25720000  0.90060000  1.0
  H  H37  1  0.69830000  0.26330000  0.51530000  1.0
  H  H38  1  0.69560000  0.15690000  0.79810000  1.0
  H  H39  1  0.89860000  0.06220000  0.27590000  1.0
  H  H40  1  0.70410000  0.36000000  0.80830000  1.0
  H  H41  1  0.60110000  0.94640000  0.23770000  1.0
  H  H42  1  0.19070000  0.75720000  0.90060000  1.0
  H  H43  1  0.19830000  0.76330000  0.51530000  1.0
  H  H44  1  0.19560000  0.65690000  0.79810000  1.0
  H  H45  1  0.39860000  0.56220000  0.27590000  1.0
  H  H46  1  0.20410000  0.86000000  0.80830000  1.0
  H  H47  1  0.10110000  0.44640000  0.23770000  1.0
  H  H48  1  0.30930000  0.25720000  0.90060000  1.0
  H  H49  1  0.30170000  0.26330000  0.51530000  1.0
  H  H50  1  0.30440000  0.15690000  0.79810000  1.0
  H  H51  1  0.10140000  0.06220000  0.27590000  1.0
  H  H52  1  0.29590000  0.36000000  0.80830000  1.0
  H  H53  1  0.39890000  0.94640000  0.23770000  1.0
  H  H54  1  0.80930000  0.75720000  0.90060000  1.0
  H  H55  1  0.80170000  0.76330000  0.51530000  1.0
  H  H56  1  0.80440000  0.65690000  0.79810000  1.0
  H  H57  1  0.60140000  0.56220000  0.27590000  1.0
  H  H58  1  0.79590000  0.86000000  0.80830000  1.0
  H  H59  1  0.89890000  0.44640000  0.23770000  1.0
  H  H60  1  0.69070000  0.74280000  0.40060000  1.0
  H  H61  1  0.69830000  0.73670000  0.01530000  1.0
  H  H62  1  0.69560000  0.84310000  0.29810000  1.0
  H  H63  1  0.89860000  0.93780000  0.77590000  1.0
  H  H64  1  0.70410000  0.64000000  0.30830000  1.0
  H  H65  1  0.60110000  0.05360000  0.73770000  1.0
  H  H66  1  0.19070000  0.24280000  0.40060000  1.0
  H  H67  1  0.19830000  0.23670000  0.01530000  1.0
  H  H68  1  0.19560000  0.34310000  0.29810000  1.0
  H  H69  1  0.39860000  0.43780000  0.77590000  1.0
  H  H70  1  0.20410000  0.14000000  0.30830000  1.0
  H  H71  1  0.10110000  0.55360000  0.73770000  1.0
  H  H72  1  0.00000000  0.94250000  0.06320000  1.0
  H  H73  1  0.00000000  0.93080000  0.68050000  1.0
  H  H74  1  0.50000000  0.44250000  0.06320000  1.0
  H  H75  1  0.50000000  0.43080000  0.68050000  1.0
  H  H76  1  0.00000000  0.05750000  0.56320000  1.0
  H  H77  1  0.00000000  0.06920000  0.18050000  1.0
  H  H78  1  0.50000000  0.55750000  0.56320000  1.0
  H  H79  1  0.50000000  0.56920000  0.18050000  1.0
  H  H80  1  0.50000000  0.04350000  0.02830000  1.0
  H  H81  1  0.50000000  0.06060000  0.64150000  1.0
  H  H82  1  0.00000000  0.54350000  0.02830000  1.0
  H  H83  1  0.00000000  0.56060000  0.64150000  1.0
  H  H84  1  0.50000000  0.95650000  0.52830000  1.0
  H  H85  1  0.50000000  0.93940000  0.14150000  1.0
  H  H86  1  0.00000000  0.45650000  0.52830000  1.0
  H  H87  1  0.00000000  0.43940000  0.14150000  1.0
  C  C88  1  0.30500000  0.74160000  0.32370000  1.0
  C  C89  1  0.30130000  0.73810000  0.09250000  1.0
  C  C90  1  0.29810000  0.67850000  0.15220000  1.0
  C  C91  1  0.30390000  0.79890000  0.14620000  1.0
  C  C92  1  0.30440000  0.80190000  0.26200000  1.0
  C  C93  1  0.06060000  0.93840000  0.81450000  1.0
  C  C94  1  0.06040000  0.94250000  0.92880000  1.0
  C  C95  1  0.28640000  0.61380000  0.09030000  1.0
  C  C96  1  0.30150000  0.86400000  0.07740000  1.0
  C  C97  1  0.12480000  0.94630000  0.99580000  1.0
  C  C98  1  0.29910000  0.67970000  0.26810000  1.0
  C  C99  1  0.37530000  0.03740000  0.96240000  1.0
  C  C100  1  0.43800000  0.04740000  0.89160000  1.0
  C  C101  1  0.43950000  0.05250000  0.77670000  1.0
  C  C102  1  0.80500000  0.24160000  0.32370000  1.0
  C  C103  1  0.80130000  0.23810000  0.09250000  1.0
  C  C104  1  0.79810000  0.17850000  0.15220000  1.0
  C  C105  1  0.80390000  0.29890000  0.14620000  1.0
  C  C106  1  0.80440000  0.30190000  0.26200000  1.0
  C  C107  1  0.56060000  0.43840000  0.81450000  1.0
  C  C108  1  0.56040000  0.44250000  0.92880000  1.0
  C  C109  1  0.78640000  0.11380000  0.09030000  1.0
  C  C110  1  0.80150000  0.36400000  0.07740000  1.0
  C  C111  1  0.62480000  0.44630000  0.99580000  1.0
  C  C112  1  0.79910000  0.17970000  0.26810000  1.0
  C  C113  1  0.87530000  0.53740000  0.96240000  1.0
  C  C114  1  0.93800000  0.54740000  0.89160000  1.0
  C  C115  1  0.93950000  0.55250000  0.77670000  1.0
  C  C116  1  0.69500000  0.25840000  0.82370000  1.0
  C  C117  1  0.69870000  0.26190000  0.59250000  1.0
  C  C118  1  0.70190000  0.32150000  0.65220000  1.0
  C  C119  1  0.69610000  0.20110000  0.64620000  1.0
  C  C120  1  0.69560000  0.19810000  0.76200000  1.0
  C  C121  1  0.93940000  0.06160000  0.31450000  1.0
  C  C122  1  0.93960000  0.05750000  0.42880000  1.0
  C  C123  1  0.71360000  0.38620000  0.59030000  1.0
  C  C124  1  0.69850000  0.13600000  0.57740000  1.0
  C  C125  1  0.87520000  0.05370000  0.49580000  1.0
  C  C126  1  0.70090000  0.32030000  0.76810000  1.0
  C  C127  1  0.62470000  0.96260000  0.46240000  1.0
  C  C128  1  0.56200000  0.95260000  0.39160000  1.0
  C  C129  1  0.56050000  0.94750000  0.27670000  1.0
  C  C130  1  0.19500000  0.75840000  0.82370000  1.0
  C  C131  1  0.19870000  0.76190000  0.59250000  1.0
  C  C132  1  0.20190000  0.82150000  0.65220000  1.0
  C  C133  1  0.19610000  0.70110000  0.64620000  1.0
  C  C134  1  0.19560000  0.69810000  0.76200000  1.0
  C  C135  1  0.43940000  0.56160000  0.31450000  1.0
  C  C136  1  0.43960000  0.55750000  0.42880000  1.0
  C  C137  1  0.21360000  0.88620000  0.59030000  1.0
  C  C138  1  0.19850000  0.63600000  0.57740000  1.0
  C  C139  1  0.37520000  0.55370000  0.49580000  1.0
  C  C140  1  0.20090000  0.82030000  0.76810000  1.0
  C  C141  1  0.12470000  0.46260000  0.46240000  1.0
  C  C142  1  0.06200000  0.45260000  0.39160000  1.0
  C  C143  1  0.06050000  0.44750000  0.27670000  1.0
  C  C144  1  0.30500000  0.25840000  0.82370000  1.0
  C  C145  1  0.30130000  0.26190000  0.59250000  1.0
  C  C146  1  0.29810000  0.32150000  0.65220000  1.0
  C  C147  1  0.30390000  0.20110000  0.64620000  1.0
  C  C148  1  0.30440000  0.19810000  0.76200000  1.0
  C  C149  1  0.06060000  0.06160000  0.31450000  1.0
  C  C150  1  0.06040000  0.05750000  0.42880000  1.0
  C  C151  1  0.28640000  0.38620000  0.59030000  1.0
  C  C152  1  0.30150000  0.13600000  0.57740000  1.0
  C  C153  1  0.12480000  0.05370000  0.49580000  1.0
  C  C154  1  0.29910000  0.32030000  0.76810000  1.0
  C  C155  1  0.37530000  0.96260000  0.46240000  1.0
  C  C156  1  0.43800000  0.95260000  0.39160000  1.0
  C  C157  1  0.43950000  0.94750000  0.27670000  1.0
  C  C158  1  0.80500000  0.75840000  0.82370000  1.0
  C  C159  1  0.80130000  0.76190000  0.59250000  1.0
  C  C160  1  0.79810000  0.82150000  0.65220000  1.0
  C  C161  1  0.80390000  0.70110000  0.64620000  1.0
  C  C162  1  0.80440000  0.69810000  0.76200000  1.0
  C  C163  1  0.56060000  0.56160000  0.31450000  1.0
  C  C164  1  0.56040000  0.55750000  0.42880000  1.0
  C  C165  1  0.78640000  0.88620000  0.59030000  1.0
  C  C166  1  0.80150000  0.63600000  0.57740000  1.0
  C  C167  1  0.62480000  0.55370000  0.49580000  1.0
  C  C168  1  0.79910000  0.82030000  0.76810000  1.0
  C  C169  1  0.87530000  0.46260000  0.46240000  1.0
  C  C170  1  0.93800000  0.45260000  0.39160000  1.0
  C  C171  1  0.93950000  0.44750000  0.27670000  1.0
  C  C172  1  0.69500000  0.74160000  0.32370000  1.0
  C  C173  1  0.69870000  0.73810000  0.09250000  1.0
  C  C174  1  0.70190000  0.67850000  0.15220000  1.0
  C  C175  1  0.69610000  0.79890000  0.14620000  1.0
  C  C176  1  0.69560000  0.80190000  0.26200000  1.0
  C  C177  1  0.93940000  0.93840000  0.81450000  1.0
  C  C178  1  0.93960000  0.94250000  0.92880000  1.0
  C  C179  1  0.71360000  0.61380000  0.09030000  1.0
  C  C180  1  0.69850000  0.86400000  0.07740000  1.0
  C  C181  1  0.87520000  0.94630000  0.99580000  1.0
  C  C182  1  0.70090000  0.67970000  0.26810000  1.0
  C  C183  1  0.62470000  0.03740000  0.96240000  1.0
  C  C184  1  0.56200000  0.04740000  0.89160000  1.0
  C  C185  1  0.56050000  0.05250000  0.77670000  1.0
  C  C186  1  0.19500000  0.24160000  0.32370000  1.0
  C  C187  1  0.19870000  0.23810000  0.09250000  1.0
  C  C188  1  0.20190000  0.17850000  0.15220000  1.0
  C  C189  1  0.19610000  0.29890000  0.14620000  1.0
  C  C190  1  0.19560000  0.30190000  0.26200000  1.0
  C  C191  1  0.43940000  0.43840000  0.81450000  1.0
  C  C192  1  0.43960000  0.44250000  0.92880000  1.0
  C  C193  1  0.21360000  0.11380000  0.09030000  1.0
  C  C194  1  0.19850000  0.36400000  0.07740000  1.0
  C  C195  1  0.37520000  0.44630000  0.99580000  1.0
  C  C196  1  0.20090000  0.17970000  0.26810000  1.0
  C  C197  1  0.12470000  0.53740000  0.96240000  1.0
  C  C198  1  0.06200000  0.54740000  0.89160000  1.0
  C  C199  1  0.06050000  0.55250000  0.77670000  1.0
  C  C200  1  0.00000000  0.94250000  0.98590000  1.0
  C  C201  1  0.00000000  0.93520000  0.75740000  1.0
  C  C202  1  0.50000000  0.44250000  0.98590000  1.0
  C  C203  1  0.50000000  0.43520000  0.75740000  1.0
  C  C204  1  0.00000000  0.05750000  0.48590000  1.0
  C  C205  1  0.00000000  0.06480000  0.25740000  1.0
  C  C206  1  0.50000000  0.55750000  0.48590000  1.0
  C  C207  1  0.50000000  0.56480000  0.25740000  1.0
  C  C208  1  0.50000000  0.04570000  0.95110000  1.0
  C  C209  1  0.50000000  0.05600000  0.71840000  1.0
  C  C210  1  0.00000000  0.54570000  0.95110000  1.0
  C  C211  1  0.00000000  0.55600000  0.71840000  1.0
  C  C212  1  0.50000000  0.95430000  0.45110000  1.0
  C  C213  1  0.50000000  0.94400000  0.21840000  1.0
  C  C214  1  0.00000000  0.45430000  0.45110000  1.0
  C  C215  1  0.00000000  0.44400000  0.21840000  1.0
  O  O216  1  0.28590000  0.91650000  0.12670000  1.0
  O  O217  1  0.12480000  0.94260000  0.09700000  1.0
  O  O218  1  0.31870000  0.85990000  0.97770000  1.0
  O  O219  1  0.29490000  0.61260000  0.98750000  1.0
  O  O220  1  0.17780000  0.96240000  0.93910000  1.0
  O  O221  1  0.26790000  0.56200000  0.14470000  1.0
  O  O222  1  0.32300000  0.01720000  0.90960000  1.0
  O  O223  1  0.37500000  0.04670000  0.06110000  1.0
  O  O224  1  0.78590000  0.41650000  0.12670000  1.0
  O  O225  1  0.62480000  0.44260000  0.09700000  1.0
  O  O226  1  0.81870000  0.35990000  0.97770000  1.0
  O  O227  1  0.79490000  0.11260000  0.98750000  1.0
  O  O228  1  0.67780000  0.46240000  0.93910000  1.0
  O  O229  1  0.76790000  0.06200000  0.14470000  1.0
  O  O230  1  0.82300000  0.51720000  0.90960000  1.0
  O  O231  1  0.87500000  0.54670000  0.06110000  1.0
  O  O232  1  0.71410000  0.08350000  0.62670000  1.0
  O  O233  1  0.87520000  0.05740000  0.59700000  1.0
  O  O234  1  0.68130000  0.14010000  0.47770000  1.0
  O  O235  1  0.70510000  0.38740000  0.48750000  1.0
  O  O236  1  0.82220000  0.03760000  0.43910000  1.0
  O  O237  1  0.73210000  0.43800000  0.64470000  1.0
  O  O238  1  0.67700000  0.98280000  0.40960000  1.0
  O  O239  1  0.62500000  0.95330000  0.56110000  1.0
  O  O240  1  0.21410000  0.58350000  0.62670000  1.0
  O  O241  1  0.37520000  0.55740000  0.59700000  1.0
  O  O242  1  0.18130000  0.64010000  0.47770000  1.0
  O  O243  1  0.20510000  0.88740000  0.48750000  1.0
  O  O244  1  0.32220000  0.53760000  0.43910000  1.0
  O  O245  1  0.23210000  0.93800000  0.64470000  1.0
  O  O246  1  0.17700000  0.48280000  0.40960000  1.0
  O  O247  1  0.12500000  0.45330000  0.56110000  1.0
  O  O248  1  0.28590000  0.08350000  0.62670000  1.0
  O  O249  1  0.12480000  0.05740000  0.59700000  1.0
  O  O250  1  0.31870000  0.14010000  0.47770000  1.0
  O  O251  1  0.29490000  0.38740000  0.48750000  1.0
  O  O252  1  0.17780000  0.03760000  0.43910000  1.0
  O  O253  1  0.26790000  0.43800000  0.64470000  1.0
  O  O254  1  0.32300000  0.98280000  0.40960000  1.0
  O  O255  1  0.37500000  0.95330000  0.56110000  1.0
  O  O256  1  0.78590000  0.58350000  0.62670000  1.0
  O  O257  1  0.62480000  0.55740000  0.59700000  1.0
  O  O258  1  0.81870000  0.64010000  0.47770000  1.0
  O  O259  1  0.79490000  0.88740000  0.48750000  1.0
  O  O260  1  0.67780000  0.53760000  0.43910000  1.0
  O  O261  1  0.76790000  0.93800000  0.64470000  1.0
  O  O262  1  0.82300000  0.48280000  0.40960000  1.0
  O  O263  1  0.87500000  0.45330000  0.56110000  1.0
  O  O264  1  0.71410000  0.91650000  0.12670000  1.0
  O  O265  1  0.87520000  0.94260000  0.09700000  1.0
  O  O266  1  0.68130000  0.85990000  0.97770000  1.0
  O  O267  1  0.70510000  0.61260000  0.98750000  1.0
  O  O268  1  0.82220000  0.96240000  0.93910000  1.0
  O  O269  1  0.73210000  0.56200000  0.14470000  1.0
  O  O270  1  0.67700000  0.01720000  0.90960000  1.0
  O  O271  1  0.62500000  0.04670000  0.06110000  1.0
  O  O272  1  0.21410000  0.41650000  0.12670000  1.0
  O  O273  1  0.37520000  0.44260000  0.09700000  1.0
  O  O274  1  0.18130000  0.35990000  0.97770000  1.0
  O  O275  1  0.20510000  0.11260000  0.98750000  1.0
  O  O276  1  0.32220000  0.46240000  0.93910000  1.0
  O  O277  1  0.23210000  0.06200000  0.14470000  1.0
  O  O278  1  0.17700000  0.51720000  0.90960000  1.0
  O  O279  1  0.12500000  0.54670000  0.06110000  1.0
  O  O280  1  0.50000000  0.87690000  0.82900000  1.0
  O  O281  1  0.00000000  0.37690000  0.82900000  1.0
  O  O282  1  0.50000000  0.12310000  0.32900000  1.0
  O  O283  1  0.00000000  0.62310000  0.32900000  1.0
