# generated using pymatgen
data_Ag3H12(C2N5)2
_symmetry_space_group_name_H-M   'P 1'
_cell_length_a   29.63370000
_cell_length_b   29.63370000
_cell_length_c   3.49130000
_cell_angle_alpha   90.00000000
_cell_angle_beta   90.00000000
_cell_angle_gamma   90.00000000
_symmetry_Int_Tables_number   1
_chemical_formula_structural   Ag3H12(C2N5)2
_chemical_formula_sum   'Ag24 H96 C32 N80'
_cell_volume   3065.90665619
_cell_formula_units_Z   8
loop_
 _symmetry_equiv_pos_site_id
 _symmetry_equiv_pos_as_xyz
  1  'x, y, z'
loop_
 _atom_site_type_symbol
 _atom_site_label
 _atom_site_symmetry_multiplicity
 _atom_site_fract_x
 _atom_site_fract_y
 _atom_site_fract_z
 _atom_site_occupancy
  Ag  Ag0  1  0.43868000  0.31132000  0.12500000  1.0
  Ag  Ag1  1  0.06132000  0.68868000  0.62500000  1.0
  Ag  Ag2  1  0.93868000  0.18868000  0.37500000  1.0
  Ag  Ag3  1  0.56132000  0.81132000  0.87500000  1.0
  Ag  Ag4  1  0.06132000  0.31132000  0.37500000  1.0
  Ag  Ag5  1  0.43868000  0.68868000  0.87500000  1.0
  Ag  Ag6  1  0.56132000  0.18868000  0.12500000  1.0
  Ag  Ag7  1  0.93868000  0.81132000  0.62500000  1.0
  Ag  Ag8  1  0.56132000  0.68868000  0.87500000  1.0
  Ag  Ag9  1  0.93868000  0.31132000  0.37500000  1.0
  Ag  Ag10  1  0.06132000  0.81132000  0.62500000  1.0
  Ag  Ag11  1  0.43868000  0.18868000  0.12500000  1.0
  Ag  Ag12  1  0.93868000  0.68868000  0.62500000  1.0
  Ag  Ag13  1  0.56132000  0.31132000  0.12500000  1.0
  Ag  Ag14  1  0.43868000  0.81132000  0.87500000  1.0
  Ag  Ag15  1  0.06132000  0.18868000  0.37500000  1.0
  Ag  Ag16  1  0.25000000  0.25000000  0.75000000  1.0
  Ag  Ag17  1  0.25000000  0.75000000  0.25000000  1.0
  Ag  Ag18  1  0.00000000  0.00000000  0.00000000  1.0
  Ag  Ag19  1  0.50000000  0.50000000  0.50000000  1.0
  Ag  Ag20  1  0.50000000  0.00000000  0.50000000  1.0
  Ag  Ag21  1  0.00000000  0.50000000  0.00000000  1.0
  Ag  Ag22  1  0.75000000  0.25000000  0.75000000  1.0
  Ag  Ag23  1  0.75000000  0.75000000  0.25000000  1.0
  H  H24  1  0.34810000  0.35130000  0.40200000  1.0
  H  H25  1  0.30310000  0.33780000  0.55300000  1.0
  H  H26  1  0.33260000  0.31500000  0.46790000  1.0
  H  H27  1  0.84810000  0.85130000  0.90200000  1.0
  H  H28  1  0.80310000  0.83780000  0.05300000  1.0
  H  H29  1  0.83260000  0.81500000  0.96790000  1.0
  H  H30  1  0.15190000  0.64870000  0.90200000  1.0
  H  H31  1  0.19690000  0.66220000  0.05300000  1.0
  H  H32  1  0.16740000  0.68500000  0.96790000  1.0
  H  H33  1  0.65190000  0.14870000  0.40200000  1.0
  H  H34  1  0.69690000  0.16220000  0.55300000  1.0
  H  H35  1  0.66740000  0.18500000  0.46790000  1.0
  H  H36  1  0.89870000  0.09810000  0.65200000  1.0
  H  H37  1  0.91220000  0.05310000  0.80300000  1.0
  H  H38  1  0.93500000  0.08260000  0.71790000  1.0
  H  H39  1  0.39870000  0.59810000  0.15200000  1.0
  H  H40  1  0.41220000  0.55310000  0.30300000  1.0
  H  H41  1  0.43500000  0.58260000  0.21790000  1.0
  H  H42  1  0.60130000  0.90190000  0.15200000  1.0
  H  H43  1  0.58780000  0.94690000  0.30300000  1.0
  H  H44  1  0.56500000  0.91740000  0.21790000  1.0
  H  H45  1  0.10130000  0.40190000  0.65200000  1.0
  H  H46  1  0.08780000  0.44690000  0.80300000  1.0
  H  H47  1  0.06500000  0.41740000  0.71790000  1.0
  H  H48  1  0.15190000  0.35130000  0.09800000  1.0
  H  H49  1  0.19690000  0.33780000  0.94700000  1.0
  H  H50  1  0.16740000  0.31500000  0.03210000  1.0
  H  H51  1  0.65190000  0.85130000  0.59800000  1.0
  H  H52  1  0.69690000  0.83780000  0.44700000  1.0
  H  H53  1  0.66740000  0.81500000  0.53210000  1.0
  H  H54  1  0.34810000  0.64870000  0.59800000  1.0
  H  H55  1  0.30310000  0.66220000  0.44700000  1.0
  H  H56  1  0.33260000  0.68500000  0.53210000  1.0
  H  H57  1  0.84810000  0.14870000  0.09800000  1.0
  H  H58  1  0.80310000  0.16220000  0.94700000  1.0
  H  H59  1  0.83260000  0.18500000  0.03210000  1.0
  H  H60  1  0.60130000  0.09810000  0.84800000  1.0
  H  H61  1  0.58780000  0.05310000  0.69700000  1.0
  H  H62  1  0.56500000  0.08260000  0.78210000  1.0
  H  H63  1  0.10130000  0.59810000  0.34800000  1.0
  H  H64  1  0.08780000  0.55310000  0.19700000  1.0
  H  H65  1  0.06500000  0.58260000  0.28210000  1.0
  H  H66  1  0.89870000  0.90190000  0.34800000  1.0
  H  H67  1  0.91220000  0.94690000  0.19700000  1.0
  H  H68  1  0.93500000  0.91740000  0.28210000  1.0
  H  H69  1  0.39870000  0.40190000  0.84800000  1.0
  H  H70  1  0.41220000  0.44690000  0.69700000  1.0
  H  H71  1  0.43500000  0.41740000  0.78210000  1.0
  H  H72  1  0.65190000  0.64870000  0.59800000  1.0
  H  H73  1  0.69690000  0.66220000  0.44700000  1.0
  H  H74  1  0.66740000  0.68500000  0.53210000  1.0
  H  H75  1  0.15190000  0.14870000  0.09800000  1.0
  H  H76  1  0.19690000  0.16220000  0.94700000  1.0
  H  H77  1  0.16740000  0.18500000  0.03210000  1.0
  H  H78  1  0.84810000  0.35130000  0.09800000  1.0
  H  H79  1  0.80310000  0.33780000  0.94700000  1.0
  H  H80  1  0.83260000  0.31500000  0.03210000  1.0
  H  H81  1  0.34810000  0.85130000  0.59800000  1.0
  H  H82  1  0.30310000  0.83780000  0.44700000  1.0
  H  H83  1  0.33260000  0.81500000  0.53210000  1.0
  H  H84  1  0.10130000  0.90190000  0.34800000  1.0
  H  H85  1  0.08780000  0.94690000  0.19700000  1.0
  H  H86  1  0.06500000  0.91740000  0.28210000  1.0
  H  H87  1  0.60130000  0.40190000  0.84800000  1.0
  H  H88  1  0.58780000  0.44690000  0.69700000  1.0
  H  H89  1  0.56500000  0.41740000  0.78210000  1.0
  H  H90  1  0.39870000  0.09810000  0.84800000  1.0
  H  H91  1  0.41220000  0.05310000  0.69700000  1.0
  H  H92  1  0.43500000  0.08260000  0.78210000  1.0
  H  H93  1  0.89870000  0.59810000  0.34800000  1.0
  H  H94  1  0.91220000  0.55310000  0.19700000  1.0
  H  H95  1  0.93500000  0.58260000  0.28210000  1.0
  H  H96  1  0.84810000  0.64870000  0.90200000  1.0
  H  H97  1  0.80310000  0.66220000  0.05300000  1.0
  H  H98  1  0.83260000  0.68500000  0.96790000  1.0
  H  H99  1  0.34810000  0.14870000  0.40200000  1.0
  H  H100  1  0.30310000  0.16220000  0.55300000  1.0
  H  H101  1  0.33260000  0.18500000  0.46790000  1.0
  H  H102  1  0.65190000  0.35130000  0.40200000  1.0
  H  H103  1  0.69690000  0.33780000  0.55300000  1.0
  H  H104  1  0.66740000  0.31500000  0.46790000  1.0
  H  H105  1  0.15190000  0.85130000  0.90200000  1.0
  H  H106  1  0.19690000  0.83780000  0.05300000  1.0
  H  H107  1  0.16740000  0.81500000  0.96790000  1.0
  H  H108  1  0.39870000  0.90190000  0.15200000  1.0
  H  H109  1  0.41220000  0.94690000  0.30300000  1.0
  H  H110  1  0.43500000  0.91740000  0.21790000  1.0
  H  H111  1  0.89870000  0.40190000  0.65200000  1.0
  H  H112  1  0.91220000  0.44690000  0.80300000  1.0
  H  H113  1  0.93500000  0.41740000  0.71790000  1.0
  H  H114  1  0.10130000  0.09810000  0.65200000  1.0
  H  H115  1  0.08780000  0.05310000  0.80300000  1.0
  H  H116  1  0.06500000  0.08260000  0.71790000  1.0
  H  H117  1  0.60130000  0.59810000  0.15200000  1.0
  H  H118  1  0.58780000  0.55310000  0.30300000  1.0
  H  H119  1  0.56500000  0.58260000  0.21790000  1.0
  C  C120  1  0.34173000  0.28520000  0.44050000  1.0
  C  C121  1  0.84173000  0.78520000  0.94050000  1.0
  C  C122  1  0.15827000  0.71480000  0.94050000  1.0
  C  C123  1  0.65827000  0.21480000  0.44050000  1.0
  C  C124  1  0.96480000  0.09173000  0.69050000  1.0
  C  C125  1  0.46480000  0.59173000  0.19050000  1.0
  C  C126  1  0.53520000  0.90827000  0.19050000  1.0
  C  C127  1  0.03520000  0.40827000  0.69050000  1.0
  C  C128  1  0.15827000  0.28520000  0.05950000  1.0
  C  C129  1  0.65827000  0.78520000  0.55950000  1.0
  C  C130  1  0.34173000  0.71480000  0.55950000  1.0
  C  C131  1  0.84173000  0.21480000  0.05950000  1.0
  C  C132  1  0.53520000  0.09173000  0.80950000  1.0
  C  C133  1  0.03520000  0.59173000  0.30950000  1.0
  C  C134  1  0.96480000  0.90827000  0.30950000  1.0
  C  C135  1  0.46480000  0.40827000  0.80950000  1.0
  C  C136  1  0.65827000  0.71480000  0.55950000  1.0
  C  C137  1  0.15827000  0.21480000  0.05950000  1.0
  C  C138  1  0.84173000  0.28520000  0.05950000  1.0
  C  C139  1  0.34173000  0.78520000  0.55950000  1.0
  C  C140  1  0.03520000  0.90827000  0.30950000  1.0
  C  C141  1  0.53520000  0.40827000  0.80950000  1.0
  C  C142  1  0.46480000  0.09173000  0.80950000  1.0
  C  C143  1  0.96480000  0.59173000  0.30950000  1.0
  C  C144  1  0.84173000  0.71480000  0.94050000  1.0
  C  C145  1  0.34173000  0.21480000  0.44050000  1.0
  C  C146  1  0.65827000  0.28520000  0.44050000  1.0
  C  C147  1  0.15827000  0.78520000  0.94050000  1.0
  C  C148  1  0.46480000  0.90827000  0.19050000  1.0
  C  C149  1  0.96480000  0.40827000  0.69050000  1.0
  C  C150  1  0.03520000  0.09173000  0.69050000  1.0
  C  C151  1  0.53520000  0.59173000  0.19050000  1.0
  N  N152  1  0.38199000  0.27318000  0.31190000  1.0
  N  N153  1  0.32940000  0.33060000  0.46900000  1.0
  N  N154  1  0.88199000  0.77318000  0.81190000  1.0
  N  N155  1  0.82940000  0.83060000  0.96900000  1.0
  N  N156  1  0.11801000  0.72682000  0.81190000  1.0
  N  N157  1  0.17060000  0.66940000  0.96900000  1.0
  N  N158  1  0.61801000  0.22682000  0.31190000  1.0
  N  N159  1  0.67060000  0.16940000  0.46900000  1.0
  N  N160  1  0.97682000  0.13199000  0.56190000  1.0
  N  N161  1  0.91940000  0.07940000  0.71900000  1.0
  N  N162  1  0.47682000  0.63199000  0.06190000  1.0
  N  N163  1  0.41940000  0.57940000  0.21900000  1.0
  N  N164  1  0.52318000  0.86801000  0.06190000  1.0
  N  N165  1  0.58060000  0.92060000  0.21900000  1.0
  N  N166  1  0.02318000  0.36801000  0.56190000  1.0
  N  N167  1  0.08060000  0.42060000  0.71900000  1.0
  N  N168  1  0.11801000  0.27318000  0.18810000  1.0
  N  N169  1  0.17060000  0.33060000  0.03100000  1.0
  N  N170  1  0.61801000  0.77318000  0.68810000  1.0
  N  N171  1  0.67060000  0.83060000  0.53100000  1.0
  N  N172  1  0.38199000  0.72682000  0.68810000  1.0
  N  N173  1  0.32940000  0.66940000  0.53100000  1.0
  N  N174  1  0.88199000  0.22682000  0.18810000  1.0
  N  N175  1  0.82940000  0.16940000  0.03100000  1.0
  N  N176  1  0.52318000  0.13199000  0.93810000  1.0
  N  N177  1  0.58060000  0.07940000  0.78100000  1.0
  N  N178  1  0.02318000  0.63199000  0.43810000  1.0
  N  N179  1  0.08060000  0.57940000  0.28100000  1.0
  N  N180  1  0.97682000  0.86801000  0.43810000  1.0
  N  N181  1  0.91940000  0.92060000  0.28100000  1.0
  N  N182  1  0.47682000  0.36801000  0.93810000  1.0
  N  N183  1  0.41940000  0.42060000  0.78100000  1.0
  N  N184  1  0.61801000  0.72682000  0.68810000  1.0
  N  N185  1  0.67060000  0.66940000  0.53100000  1.0
  N  N186  1  0.11801000  0.22682000  0.18810000  1.0
  N  N187  1  0.17060000  0.16940000  0.03100000  1.0
  N  N188  1  0.88199000  0.27318000  0.18810000  1.0
  N  N189  1  0.82940000  0.33060000  0.03100000  1.0
  N  N190  1  0.38199000  0.77318000  0.68810000  1.0
  N  N191  1  0.32940000  0.83060000  0.53100000  1.0
  N  N192  1  0.02318000  0.86801000  0.43810000  1.0
  N  N193  1  0.08060000  0.92060000  0.28100000  1.0
  N  N194  1  0.52318000  0.36801000  0.93810000  1.0
  N  N195  1  0.58060000  0.42060000  0.78100000  1.0
  N  N196  1  0.47682000  0.13199000  0.93810000  1.0
  N  N197  1  0.41940000  0.07940000  0.78100000  1.0
  N  N198  1  0.97682000  0.63199000  0.43810000  1.0
  N  N199  1  0.91940000  0.57940000  0.28100000  1.0
  N  N200  1  0.88199000  0.72682000  0.81190000  1.0
  N  N201  1  0.82940000  0.66940000  0.96900000  1.0
  N  N202  1  0.38199000  0.22682000  0.31190000  1.0
  N  N203  1  0.32940000  0.16940000  0.46900000  1.0
  N  N204  1  0.61801000  0.27318000  0.31190000  1.0
  N  N205  1  0.67060000  0.33060000  0.46900000  1.0
  N  N206  1  0.11801000  0.77318000  0.81190000  1.0
  N  N207  1  0.17060000  0.83060000  0.96900000  1.0
  N  N208  1  0.47682000  0.86801000  0.06190000  1.0
  N  N209  1  0.41940000  0.92060000  0.21900000  1.0
  N  N210  1  0.97682000  0.36801000  0.56190000  1.0
  N  N211  1  0.91940000  0.42060000  0.71900000  1.0
  N  N212  1  0.02318000  0.13199000  0.56190000  1.0
  N  N213  1  0.08060000  0.07940000  0.71900000  1.0
  N  N214  1  0.52318000  0.63199000  0.06190000  1.0
  N  N215  1  0.58060000  0.57940000  0.21900000  1.0
  N  N216  1  0.31578000  0.25000000  0.52620000  1.0
  N  N217  1  0.18422000  0.75000000  0.02620000  1.0
  N  N218  1  0.00000000  0.06578000  0.77620000  1.0
  N  N219  1  0.50000000  0.56578000  0.27620000  1.0
  N  N220  1  0.50000000  0.93422000  0.27620000  1.0
  N  N221  1  0.00000000  0.43422000  0.77620000  1.0
  N  N222  1  0.18422000  0.25000000  0.97380000  1.0
  N  N223  1  0.31578000  0.75000000  0.47380000  1.0
  N  N224  1  0.81578000  0.25000000  0.97380000  1.0
  N  N225  1  0.50000000  0.06578000  0.72380000  1.0
  N  N226  1  0.00000000  0.56578000  0.22380000  1.0
  N  N227  1  0.00000000  0.93422000  0.22380000  1.0
  N  N228  1  0.50000000  0.43422000  0.72380000  1.0
  N  N229  1  0.68422000  0.75000000  0.47380000  1.0
  N  N230  1  0.81578000  0.75000000  0.02620000  1.0
  N  N231  1  0.68422000  0.25000000  0.52620000  1.0
