# generated using pymatgen
data_Cd2H3C19N4O5
_symmetry_space_group_name_H-M   'P 1'
_cell_length_a   19.75800000
_cell_length_b   7.22800000
_cell_length_c   17.53000000
_cell_angle_alpha   90.00000000
_cell_angle_beta   90.00000000
_cell_angle_gamma   90.00000000
_symmetry_Int_Tables_number   1
_chemical_formula_structural   Cd2H3C19N4O5
_chemical_formula_sum   'Cd8 H12 C76 N16 O20'
_cell_volume   2503.47374472
_cell_formula_units_Z   4
loop_
 _symmetry_equiv_pos_site_id
 _symmetry_equiv_pos_as_xyz
  1  'x, y, z'
loop_
 _atom_site_type_symbol
 _atom_site_label
 _atom_site_symmetry_multiplicity
 _atom_site_fract_x
 _atom_site_fract_y
 _atom_site_fract_z
 _atom_site_occupancy
  Cd  Cd0  1  0.44007000  0.25000000  0.81937000  1.0
  Cd  Cd1  1  0.05993000  0.75000000  0.31937000  1.0
  Cd  Cd2  1  0.55993000  0.75000000  0.18063000  1.0
  Cd  Cd3  1  0.94007000  0.25000000  0.68063000  1.0
  Cd  Cd4  1  0.50000000  0.50000000  0.00000000  1.0
  Cd  Cd5  1  0.00000000  0.50000000  0.50000000  1.0
  Cd  Cd6  1  0.50000000  0.00000000  0.00000000  1.0
  Cd  Cd7  1  0.00000000  0.00000000  0.50000000  1.0
  H  H8  1  0.24260000  0.25000000  0.98320000  1.0
  H  H9  1  0.05040000  0.25000000  0.91450000  1.0
  H  H10  1  0.19730000  0.25000000  0.76000000  1.0
  H  H11  1  0.25740000  0.75000000  0.48320000  1.0
  H  H12  1  0.44960000  0.75000000  0.41450000  1.0
  H  H13  1  0.30270000  0.75000000  0.26000000  1.0
  H  H14  1  0.75740000  0.75000000  0.01680000  1.0
  H  H15  1  0.94960000  0.75000000  0.08550000  1.0
  H  H16  1  0.80270000  0.75000000  0.24000000  1.0
  H  H17  1  0.74260000  0.25000000  0.51680000  1.0
  H  H18  1  0.55040000  0.25000000  0.58550000  1.0
  H  H19  1  0.69730000  0.25000000  0.74000000  1.0
  C  C20  1  0.12670000  0.10100000  0.17190000  1.0
  C  C21  1  0.06180000  0.12100000  0.15030000  1.0
  C  C22  1  0.07800000  0.12900000  0.07200000  1.0
  C  C23  1  0.14430000  0.10100000  0.09340000  1.0
  C  C24  1  0.37330000  0.89900000  0.67190000  1.0
  C  C25  1  0.43820000  0.87900000  0.65030000  1.0
  C  C26  1  0.42200000  0.87100000  0.57200000  1.0
  C  C27  1  0.35570000  0.89900000  0.59340000  1.0
  C  C28  1  0.87330000  0.60100000  0.82810000  1.0
  C  C29  1  0.93820000  0.62100000  0.84970000  1.0
  C  C30  1  0.92200000  0.62900000  0.92800000  1.0
  C  C31  1  0.85570000  0.60100000  0.90660000  1.0
  C  C32  1  0.62670000  0.39900000  0.32810000  1.0
  C  C33  1  0.56180000  0.37900000  0.34970000  1.0
  C  C34  1  0.57800000  0.37100000  0.42800000  1.0
  C  C35  1  0.64430000  0.39900000  0.40660000  1.0
  C  C36  1  0.87330000  0.89900000  0.82810000  1.0
  C  C37  1  0.93820000  0.87900000  0.84970000  1.0
  C  C38  1  0.92200000  0.87100000  0.92800000  1.0
  C  C39  1  0.85570000  0.89900000  0.90660000  1.0
  C  C40  1  0.62670000  0.10100000  0.32810000  1.0
  C  C41  1  0.56180000  0.12100000  0.34970000  1.0
  C  C42  1  0.57800000  0.12900000  0.42800000  1.0
  C  C43  1  0.64430000  0.10100000  0.40660000  1.0
  C  C44  1  0.12670000  0.39900000  0.17190000  1.0
  C  C45  1  0.06180000  0.37900000  0.15030000  1.0
  C  C46  1  0.07800000  0.37100000  0.07200000  1.0
  C  C47  1  0.14430000  0.39900000  0.09340000  1.0
  C  C48  1  0.37330000  0.60100000  0.67190000  1.0
  C  C49  1  0.43820000  0.62100000  0.65030000  1.0
  C  C50  1  0.42200000  0.62900000  0.57200000  1.0
  C  C51  1  0.35570000  0.60100000  0.59340000  1.0
  C  C52  1  0.06580000  0.25000000  0.28050000  1.0
  C  C53  1  0.30570000  0.25000000  0.85010000  1.0
  C  C54  1  0.23140000  0.25000000  0.86910000  1.0
  C  C55  1  0.21050000  0.25000000  0.94440000  1.0
  C  C56  1  0.14220000  0.25000000  0.96280000  1.0
  C  C57  1  0.12070000  0.25000000  0.04410000  1.0
  C  C58  1  0.06510000  0.25000000  0.76370000  1.0
  C  C59  1  0.11690000  0.25000000  0.82920000  1.0
  C  C60  1  0.09650000  0.25000000  0.90350000  1.0
  C  C61  1  0.18370000  0.25000000  0.81070000  1.0
  C  C62  1  0.08480000  0.25000000  0.19870000  1.0
  C  C63  1  0.43420000  0.75000000  0.78050000  1.0
  C  C64  1  0.19430000  0.75000000  0.35010000  1.0
  C  C65  1  0.26860000  0.75000000  0.36910000  1.0
  C  C66  1  0.28950000  0.75000000  0.44440000  1.0
  C  C67  1  0.35780000  0.75000000  0.46280000  1.0
  C  C68  1  0.37930000  0.75000000  0.54410000  1.0
  C  C69  1  0.43490000  0.75000000  0.26370000  1.0
  C  C70  1  0.38310000  0.75000000  0.32920000  1.0
  C  C71  1  0.40350000  0.75000000  0.40350000  1.0
  C  C72  1  0.31630000  0.75000000  0.31070000  1.0
  C  C73  1  0.41520000  0.75000000  0.69870000  1.0
  C  C74  1  0.93420000  0.75000000  0.71950000  1.0
  C  C75  1  0.69430000  0.75000000  0.14990000  1.0
  C  C76  1  0.76860000  0.75000000  0.13090000  1.0
  C  C77  1  0.78950000  0.75000000  0.05560000  1.0
  C  C78  1  0.85780000  0.75000000  0.03720000  1.0
  C  C79  1  0.87930000  0.75000000  0.95590000  1.0
  C  C80  1  0.93490000  0.75000000  0.23630000  1.0
  C  C81  1  0.88310000  0.75000000  0.17080000  1.0
  C  C82  1  0.90350000  0.75000000  0.09650000  1.0
  C  C83  1  0.81630000  0.75000000  0.18930000  1.0
  C  C84  1  0.91520000  0.75000000  0.80130000  1.0
  C  C85  1  0.56580000  0.25000000  0.21950000  1.0
  C  C86  1  0.80570000  0.25000000  0.64990000  1.0
  C  C87  1  0.73140000  0.25000000  0.63090000  1.0
  C  C88  1  0.71050000  0.25000000  0.55560000  1.0
  C  C89  1  0.64220000  0.25000000  0.53720000  1.0
  C  C90  1  0.62070000  0.25000000  0.45590000  1.0
  C  C91  1  0.56510000  0.25000000  0.73630000  1.0
  C  C92  1  0.61690000  0.25000000  0.67080000  1.0
  C  C93  1  0.59650000  0.25000000  0.59650000  1.0
  C  C94  1  0.68370000  0.25000000  0.68930000  1.0
  C  C95  1  0.58480000  0.25000000  0.30130000  1.0
  N  N96  1  0.05600000  0.09710000  0.32190000  1.0
  N  N97  1  0.03940000  0.16110000  0.39100000  1.0
  N  N98  1  0.44400000  0.90290000  0.82190000  1.0
  N  N99  1  0.46060000  0.83890000  0.89100000  1.0
  N  N100  1  0.94400000  0.59710000  0.67810000  1.0
  N  N101  1  0.96060000  0.66110000  0.60900000  1.0
  N  N102  1  0.55600000  0.40290000  0.17810000  1.0
  N  N103  1  0.53940000  0.33890000  0.10900000  1.0
  N  N104  1  0.94400000  0.90290000  0.67810000  1.0
  N  N105  1  0.96060000  0.83890000  0.60900000  1.0
  N  N106  1  0.55600000  0.09710000  0.17810000  1.0
  N  N107  1  0.53940000  0.16110000  0.10900000  1.0
  N  N108  1  0.05600000  0.40290000  0.32190000  1.0
  N  N109  1  0.03940000  0.33890000  0.39100000  1.0
  N  N110  1  0.44400000  0.59710000  0.82190000  1.0
  N  N111  1  0.46060000  0.66110000  0.89100000  1.0
  O  O112  1  0.34750000  0.25000000  0.90470000  1.0
  O  O113  1  0.32580000  0.25000000  0.78230000  1.0
  O  O114  1  0.00370000  0.25000000  0.78260000  1.0
  O  O115  1  0.08550000  0.25000000  0.69800000  1.0
  O  O116  1  0.50090000  0.25000000  0.92800000  1.0
  O  O117  1  0.15250000  0.75000000  0.40470000  1.0
  O  O118  1  0.17420000  0.75000000  0.28230000  1.0
  O  O119  1  0.49630000  0.75000000  0.28260000  1.0
  O  O120  1  0.41450000  0.75000000  0.19800000  1.0
  O  O121  1  0.99910000  0.75000000  0.42800000  1.0
  O  O122  1  0.65250000  0.75000000  0.09530000  1.0
  O  O123  1  0.67420000  0.75000000  0.21770000  1.0
  O  O124  1  0.99630000  0.75000000  0.21740000  1.0
  O  O125  1  0.91450000  0.75000000  0.30200000  1.0
  O  O126  1  0.49910000  0.75000000  0.07200000  1.0
  O  O127  1  0.84750000  0.25000000  0.59530000  1.0
  O  O128  1  0.82580000  0.25000000  0.71770000  1.0
  O  O129  1  0.50370000  0.25000000  0.71740000  1.0
  O  O130  1  0.58550000  0.25000000  0.80200000  1.0
  O  O131  1  0.00090000  0.25000000  0.57200000  1.0
