# generated using pymatgen
data_Nd3H17C21(N2O9)2
_symmetry_space_group_name_H-M   'P 1'
_cell_length_a   12.60960000
_cell_length_b   13.00790000
_cell_length_c   22.50140000
_cell_angle_alpha   90.00000000
_cell_angle_beta   90.00000000
_cell_angle_gamma   90.00000000
_symmetry_Int_Tables_number   1
_chemical_formula_structural   Nd3H17C21(N2O9)2
_chemical_formula_sum   'Nd12 H68 C84 N16 O72'
_cell_volume   3690.77899058
_cell_formula_units_Z   4
loop_
 _symmetry_equiv_pos_site_id
 _symmetry_equiv_pos_as_xyz
  1  'x, y, z'
loop_
 _atom_site_type_symbol
 _atom_site_label
 _atom_site_symmetry_multiplicity
 _atom_site_fract_x
 _atom_site_fract_y
 _atom_site_fract_z
 _atom_site_occupancy
  Nd  Nd0  1  0.01142000  0.83903000  0.50732000  1.0
  Nd  Nd1  1  0.51142000  0.66097000  0.49268000  1.0
  Nd  Nd2  1  0.98858000  0.16097000  0.00732000  1.0
  Nd  Nd3  1  0.48858000  0.33903000  0.99268000  1.0
  Nd  Nd4  1  0.98858000  0.16097000  0.49268000  1.0
  Nd  Nd5  1  0.48858000  0.33903000  0.50732000  1.0
  Nd  Nd6  1  0.01142000  0.83903000  0.99268000  1.0
  Nd  Nd7  1  0.51142000  0.66097000  0.00732000  1.0
  Nd  Nd8  1  0.83655000  0.70816000  0.25000000  1.0
  Nd  Nd9  1  0.33655000  0.79184000  0.75000000  1.0
  Nd  Nd10  1  0.16345000  0.29184000  0.75000000  1.0
  Nd  Nd11  1  0.66345000  0.20816000  0.25000000  1.0
  H  H12  1  0.15370000  0.47740000  0.61000000  1.0
  H  H13  1  0.99100000  0.55900000  0.66030000  1.0
  H  H14  1  0.94650000  0.65940000  0.63060000  1.0
  H  H15  1  0.93070000  0.46440000  0.57430000  1.0
  H  H16  1  0.87560000  0.56530000  0.55180000  1.0
  H  H17  1  0.75820000  0.56290000  0.62970000  1.0
  H  H18  1  0.75700000  0.45220000  0.60230000  1.0
  H  H19  1  0.82030000  0.47360000  0.66090000  1.0
  H  H20  1  0.65370000  0.02260000  0.39000000  1.0
  H  H21  1  0.49100000  0.94100000  0.33970000  1.0
  H  H22  1  0.44650000  0.84060000  0.36940000  1.0
  H  H23  1  0.43070000  0.03560000  0.42570000  1.0
  H  H24  1  0.37560000  0.93470000  0.44820000  1.0
  H  H25  1  0.25820000  0.93710000  0.37030000  1.0
  H  H26  1  0.25700000  0.04780000  0.39770000  1.0
  H  H27  1  0.32030000  0.02640000  0.33910000  1.0
  H  H28  1  0.84630000  0.52260000  0.11000000  1.0
  H  H29  1  0.00900000  0.44100000  0.16030000  1.0
  H  H30  1  0.05350000  0.34060000  0.13060000  1.0
  H  H31  1  0.06930000  0.53560000  0.07430000  1.0
  H  H32  1  0.12440000  0.43470000  0.05180000  1.0
  H  H33  1  0.24180000  0.43710000  0.12970000  1.0
  H  H34  1  0.24300000  0.54780000  0.10230000  1.0
  H  H35  1  0.17970000  0.52640000  0.16090000  1.0
  H  H36  1  0.34630000  0.97740000  0.89000000  1.0
  H  H37  1  0.50900000  0.05900000  0.83970000  1.0
  H  H38  1  0.55350000  0.15940000  0.86940000  1.0
  H  H39  1  0.56930000  0.96440000  0.92570000  1.0
  H  H40  1  0.62440000  0.06530000  0.94820000  1.0
  H  H41  1  0.74180000  0.06290000  0.87030000  1.0
  H  H42  1  0.74300000  0.95220000  0.89770000  1.0
  H  H43  1  0.67970000  0.97360000  0.83910000  1.0
  H  H44  1  0.84630000  0.52260000  0.39000000  1.0
  H  H45  1  0.00900000  0.44100000  0.33970000  1.0
  H  H46  1  0.05350000  0.34060000  0.36940000  1.0
  H  H47  1  0.06930000  0.53560000  0.42570000  1.0
  H  H48  1  0.12440000  0.43470000  0.44820000  1.0
  H  H49  1  0.24180000  0.43710000  0.37030000  1.0
  H  H50  1  0.24300000  0.54780000  0.39770000  1.0
  H  H51  1  0.17970000  0.52640000  0.33910000  1.0
  H  H52  1  0.34630000  0.97740000  0.61000000  1.0
  H  H53  1  0.50900000  0.05900000  0.66030000  1.0
  H  H54  1  0.55350000  0.15940000  0.63060000  1.0
  H  H55  1  0.56930000  0.96440000  0.57430000  1.0
  H  H56  1  0.62440000  0.06530000  0.55180000  1.0
  H  H57  1  0.74180000  0.06290000  0.62970000  1.0
  H  H58  1  0.74300000  0.95220000  0.60230000  1.0
  H  H59  1  0.67970000  0.97360000  0.66090000  1.0
  H  H60  1  0.15370000  0.47740000  0.89000000  1.0
  H  H61  1  0.99100000  0.55900000  0.83970000  1.0
  H  H62  1  0.94650000  0.65940000  0.86940000  1.0
  H  H63  1  0.93070000  0.46440000  0.92570000  1.0
  H  H64  1  0.87560000  0.56530000  0.94820000  1.0
  H  H65  1  0.75820000  0.56290000  0.87030000  1.0
  H  H66  1  0.75700000  0.45220000  0.89770000  1.0
  H  H67  1  0.82030000  0.47360000  0.83910000  1.0
  H  H68  1  0.65370000  0.02260000  0.11000000  1.0
  H  H69  1  0.49100000  0.94100000  0.16030000  1.0
  H  H70  1  0.44650000  0.84060000  0.13060000  1.0
  H  H71  1  0.43070000  0.03560000  0.07430000  1.0
  H  H72  1  0.37560000  0.93470000  0.05180000  1.0
  H  H73  1  0.25820000  0.93710000  0.12970000  1.0
  H  H74  1  0.25700000  0.04780000  0.10230000  1.0
  H  H75  1  0.32030000  0.02640000  0.16090000  1.0
  H  H76  1  0.70250000  0.47470000  0.25000000  1.0
  H  H77  1  0.20250000  0.02530000  0.75000000  1.0
  H  H78  1  0.29750000  0.52530000  0.75000000  1.0
  H  H79  1  0.79750000  0.97470000  0.25000000  1.0
  C  C80  1  0.19900000  0.65360000  0.52599000  1.0
  C  C81  1  0.23180000  0.56040000  0.54895000  1.0
  C  C82  1  0.07760000  0.60420000  0.58863000  1.0
  C  C83  1  0.24130000  0.72070000  0.47742000  1.0
  C  C84  1  0.31830000  0.48730000  0.53714000  1.0
  C  C85  1  0.97660000  0.59220000  0.62256000  1.0
  C  C86  1  0.89680000  0.52760000  0.58710000  1.0
  C  C87  1  0.79910000  0.50170000  0.62330000  1.0
  C  C88  1  0.94520000  0.82930000  0.36565000  1.0
  C  C89  1  0.92620000  0.71880000  0.38930000  1.0
  C  C90  1  0.69900000  0.84640000  0.47401000  1.0
  C  C91  1  0.73180000  0.93960000  0.45105000  1.0
  C  C92  1  0.57760000  0.89580000  0.41137000  1.0
  C  C93  1  0.74130000  0.77930000  0.52258000  1.0
  C  C94  1  0.81830000  0.01270000  0.46286000  1.0
  C  C95  1  0.47660000  0.90780000  0.37744000  1.0
  C  C96  1  0.39680000  0.97240000  0.41290000  1.0
  C  C97  1  0.29910000  0.99830000  0.37670000  1.0
  C  C98  1  0.44520000  0.67070000  0.63435000  1.0
  C  C99  1  0.42620000  0.78120000  0.61070000  1.0
  C  C100  1  0.80100000  0.34640000  0.02599000  1.0
  C  C101  1  0.76820000  0.43960000  0.04895000  1.0
  C  C102  1  0.92240000  0.39580000  0.08863000  1.0
  C  C103  1  0.75870000  0.27930000  0.97742000  1.0
  C  C104  1  0.68170000  0.51270000  0.03714000  1.0
  C  C105  1  0.02340000  0.40780000  0.12256000  1.0
  C  C106  1  0.10320000  0.47240000  0.08710000  1.0
  C  C107  1  0.20090000  0.49830000  0.12330000  1.0
  C  C108  1  0.05480000  0.17070000  0.86565000  1.0
  C  C109  1  0.07380000  0.28120000  0.88930000  1.0
  C  C110  1  0.30100000  0.15360000  0.97401000  1.0
  C  C111  1  0.26820000  0.06040000  0.95105000  1.0
  C  C112  1  0.42240000  0.10420000  0.91137000  1.0
  C  C113  1  0.25870000  0.22070000  0.02258000  1.0
  C  C114  1  0.18170000  0.98730000  0.96286000  1.0
  C  C115  1  0.52340000  0.09220000  0.87744000  1.0
  C  C116  1  0.60320000  0.02760000  0.91290000  1.0
  C  C117  1  0.70090000  0.00170000  0.87670000  1.0
  C  C118  1  0.55480000  0.32930000  0.13435000  1.0
  C  C119  1  0.57380000  0.21880000  0.11070000  1.0
  C  C120  1  0.80100000  0.34640000  0.47401000  1.0
  C  C121  1  0.76820000  0.43960000  0.45105000  1.0
  C  C122  1  0.92240000  0.39580000  0.41137000  1.0
  C  C123  1  0.75870000  0.27930000  0.52258000  1.0
  C  C124  1  0.68170000  0.51270000  0.46286000  1.0
  C  C125  1  0.02340000  0.40780000  0.37744000  1.0
  C  C126  1  0.10320000  0.47240000  0.41290000  1.0
  C  C127  1  0.20090000  0.49830000  0.37670000  1.0
  C  C128  1  0.05480000  0.17070000  0.63435000  1.0
  C  C129  1  0.07380000  0.28120000  0.61070000  1.0
  C  C130  1  0.30100000  0.15360000  0.52599000  1.0
  C  C131  1  0.26820000  0.06040000  0.54895000  1.0
  C  C132  1  0.42240000  0.10420000  0.58863000  1.0
  C  C133  1  0.25870000  0.22070000  0.47742000  1.0
  C  C134  1  0.18170000  0.98730000  0.53714000  1.0
  C  C135  1  0.52340000  0.09220000  0.62256000  1.0
  C  C136  1  0.60320000  0.02760000  0.58710000  1.0
  C  C137  1  0.70090000  0.00170000  0.62330000  1.0
  C  C138  1  0.55480000  0.32930000  0.36565000  1.0
  C  C139  1  0.57380000  0.21880000  0.38930000  1.0
  C  C140  1  0.19900000  0.65360000  0.97401000  1.0
  C  C141  1  0.23180000  0.56040000  0.95105000  1.0
  C  C142  1  0.07760000  0.60420000  0.91137000  1.0
  C  C143  1  0.24130000  0.72070000  0.02258000  1.0
  C  C144  1  0.31830000  0.48730000  0.96286000  1.0
  C  C145  1  0.97660000  0.59220000  0.87744000  1.0
  C  C146  1  0.89680000  0.52760000  0.91290000  1.0
  C  C147  1  0.79910000  0.50170000  0.87670000  1.0
  C  C148  1  0.94520000  0.82930000  0.13435000  1.0
  C  C149  1  0.92620000  0.71880000  0.11070000  1.0
  C  C150  1  0.69900000  0.84640000  0.02599000  1.0
  C  C151  1  0.73180000  0.93960000  0.04895000  1.0
  C  C152  1  0.57760000  0.89580000  0.08863000  1.0
  C  C153  1  0.74130000  0.77930000  0.97742000  1.0
  C  C154  1  0.81830000  0.01270000  0.03714000  1.0
  C  C155  1  0.47660000  0.90780000  0.12256000  1.0
  C  C156  1  0.39680000  0.97240000  0.08710000  1.0
  C  C157  1  0.29910000  0.99830000  0.12330000  1.0
  C  C158  1  0.44520000  0.67070000  0.86565000  1.0
  C  C159  1  0.42620000  0.78120000  0.88930000  1.0
  C  C160  1  0.77260000  0.45230000  0.25000000  1.0
  C  C161  1  0.27260000  0.04770000  0.75000000  1.0
  C  C162  1  0.22740000  0.54770000  0.75000000  1.0
  C  C163  1  0.72740000  0.95230000  0.25000000  1.0
  N  N164  1  0.10250000  0.67970000  0.55105000  1.0
  N  N165  1  0.15360000  0.53220000  0.58869000  1.0
  N  N166  1  0.60250000  0.82030000  0.44895000  1.0
  N  N167  1  0.65360000  0.96780000  0.41131000  1.0
  N  N168  1  0.89750000  0.32030000  0.05105000  1.0
  N  N169  1  0.84640000  0.46780000  0.08869000  1.0
  N  N170  1  0.39750000  0.17970000  0.94895000  1.0
  N  N171  1  0.34640000  0.03220000  0.91131000  1.0
  N  N172  1  0.89750000  0.32030000  0.44895000  1.0
  N  N173  1  0.84640000  0.46780000  0.41131000  1.0
  N  N174  1  0.39750000  0.17970000  0.55105000  1.0
  N  N175  1  0.34640000  0.03220000  0.58869000  1.0
  N  N176  1  0.10250000  0.67970000  0.94895000  1.0
  N  N177  1  0.15360000  0.53220000  0.91131000  1.0
  N  N178  1  0.60250000  0.82030000  0.05105000  1.0
  N  N179  1  0.65360000  0.96780000  0.08869000  1.0
  O  O180  1  0.17495000  0.78253000  0.45524000  1.0
  O  O181  1  0.33507000  0.71144000  0.46037000  1.0
  O  O182  1  0.38998000  0.50872000  0.49884000  1.0
  O  O183  1  0.31909000  0.40350000  0.56451000  1.0
  O  O184  1  0.92090000  0.84655000  0.31312000  1.0
  O  O185  1  0.98395000  0.89248000  0.40229000  1.0
  O  O186  1  0.94810000  0.70147000  0.44216000  1.0
  O  O187  1  0.89130000  0.65463000  0.35231000  1.0
  O  O188  1  0.67495000  0.71747000  0.54476000  1.0
  O  O189  1  0.83507000  0.78856000  0.53963000  1.0
  O  O190  1  0.88998000  0.99128000  0.50116000  1.0
  O  O191  1  0.81909000  0.09650000  0.43549000  1.0
  O  O192  1  0.42090000  0.65345000  0.68688000  1.0
  O  O193  1  0.48395000  0.60752000  0.59771000  1.0
  O  O194  1  0.44810000  0.79853000  0.55784000  1.0
  O  O195  1  0.39130000  0.84537000  0.64769000  1.0
  O  O196  1  0.82505000  0.21747000  0.95524000  1.0
  O  O197  1  0.66493000  0.28856000  0.96037000  1.0
  O  O198  1  0.61002000  0.49128000  0.99884000  1.0
  O  O199  1  0.68091000  0.59650000  0.06451000  1.0
  O  O200  1  0.07910000  0.15345000  0.81312000  1.0
  O  O201  1  0.01605000  0.10752000  0.90229000  1.0
  O  O202  1  0.05190000  0.29853000  0.94216000  1.0
  O  O203  1  0.10870000  0.34537000  0.85231000  1.0
  O  O204  1  0.32505000  0.28253000  0.04476000  1.0
  O  O205  1  0.16493000  0.21144000  0.03963000  1.0
  O  O206  1  0.11002000  0.00872000  0.00116000  1.0
  O  O207  1  0.18091000  0.90350000  0.93549000  1.0
  O  O208  1  0.57910000  0.34655000  0.18688000  1.0
  O  O209  1  0.51605000  0.39248000  0.09771000  1.0
  O  O210  1  0.55190000  0.20147000  0.05784000  1.0
  O  O211  1  0.60870000  0.15463000  0.14769000  1.0
  O  O212  1  0.82505000  0.21747000  0.54476000  1.0
  O  O213  1  0.66493000  0.28856000  0.53963000  1.0
  O  O214  1  0.61002000  0.49128000  0.50116000  1.0
  O  O215  1  0.68091000  0.59650000  0.43549000  1.0
  O  O216  1  0.07910000  0.15345000  0.68688000  1.0
  O  O217  1  0.01605000  0.10752000  0.59771000  1.0
  O  O218  1  0.05190000  0.29853000  0.55784000  1.0
  O  O219  1  0.10870000  0.34537000  0.64769000  1.0
  O  O220  1  0.32505000  0.28253000  0.45524000  1.0
  O  O221  1  0.16493000  0.21144000  0.46037000  1.0
  O  O222  1  0.11002000  0.00872000  0.49884000  1.0
  O  O223  1  0.18091000  0.90350000  0.56451000  1.0
  O  O224  1  0.57910000  0.34655000  0.31312000  1.0
  O  O225  1  0.51605000  0.39248000  0.40229000  1.0
  O  O226  1  0.55190000  0.20147000  0.44216000  1.0
  O  O227  1  0.60870000  0.15463000  0.35231000  1.0
  O  O228  1  0.17495000  0.78253000  0.04476000  1.0
  O  O229  1  0.33507000  0.71144000  0.03963000  1.0
  O  O230  1  0.38998000  0.50872000  0.00116000  1.0
  O  O231  1  0.31909000  0.40350000  0.93549000  1.0
  O  O232  1  0.92090000  0.84655000  0.18688000  1.0
  O  O233  1  0.98395000  0.89248000  0.09771000  1.0
  O  O234  1  0.94810000  0.70147000  0.05784000  1.0
  O  O235  1  0.89130000  0.65463000  0.14769000  1.0
  O  O236  1  0.67495000  0.71747000  0.95524000  1.0
  O  O237  1  0.83507000  0.78856000  0.96037000  1.0
  O  O238  1  0.88998000  0.99128000  0.99884000  1.0
  O  O239  1  0.81909000  0.09650000  0.06451000  1.0
  O  O240  1  0.42090000  0.65345000  0.81312000  1.0
  O  O241  1  0.48395000  0.60752000  0.90229000  1.0
  O  O242  1  0.44810000  0.79853000  0.94216000  1.0
  O  O243  1  0.39130000  0.84537000  0.85231000  1.0
  O  O244  1  0.84140000  0.51930000  0.25000000  1.0
  O  O245  1  0.78720000  0.35730000  0.25000000  1.0
  O  O246  1  0.34140000  0.98070000  0.75000000  1.0
  O  O247  1  0.28720000  0.14270000  0.75000000  1.0
  O  O248  1  0.15860000  0.48070000  0.75000000  1.0
  O  O249  1  0.21280000  0.64270000  0.75000000  1.0
  O  O250  1  0.65860000  0.01930000  0.25000000  1.0
  O  O251  1  0.71280000  0.85730000  0.25000000  1.0
