# generated using pymatgen
data_Co3Mo12P8H16C20(N2O25)2
_symmetry_space_group_name_H-M   'P 1'
_cell_length_a   27.64400000
_cell_length_b   16.01700000
_cell_length_c   22.90200000
_cell_angle_alpha   90.00000000
_cell_angle_beta   90.00000000
_cell_angle_gamma   90.00000000
_symmetry_Int_Tables_number   1
_chemical_formula_structural   Co3Mo12P8H16C20(N2O25)2
_chemical_formula_sum   'Co12 Mo48 P32 H64 C80 N16 O200'
_cell_volume   10140.40895710
_cell_formula_units_Z   4
loop_
 _symmetry_equiv_pos_site_id
 _symmetry_equiv_pos_as_xyz
  1  'x, y, z'
loop_
 _atom_site_type_symbol
 _atom_site_label
 _atom_site_symmetry_multiplicity
 _atom_site_fract_x
 _atom_site_fract_y
 _atom_site_fract_z
 _atom_site_occupancy
  Co  Co0  1  0.00000000  0.00000000  0.50000000  1.0
  Co  Co1  1  0.50000000  0.50000000  0.50000000  1.0
  Co  Co2  1  0.00000000  0.50000000  0.00000000  1.0
  Co  Co3  1  0.50000000  0.00000000  0.00000000  1.0
  Co  Co4  1  0.75000000  0.75000000  0.34270000  1.0
  Co  Co5  1  0.25000000  0.25000000  0.15730000  1.0
  Co  Co6  1  0.25000000  0.25000000  0.65730000  1.0
  Co  Co7  1  0.75000000  0.75000000  0.84270000  1.0
  Co  Co8  1  0.25000000  0.75000000  0.33347000  1.0
  Co  Co9  1  0.75000000  0.25000000  0.16653000  1.0
  Co  Co10  1  0.75000000  0.25000000  0.66653000  1.0
  Co  Co11  1  0.25000000  0.75000000  0.83347000  1.0
  Mo  Mo12  1  0.04938000  0.79852000  0.43815000  1.0
  Mo  Mo13  1  0.10986000  0.98202000  0.39657000  1.0
  Mo  Mo14  1  0.06009000  0.11389000  0.37014000  1.0
  Mo  Mo15  1  0.93293000  0.10497000  0.37437000  1.0
  Mo  Mo16  1  0.88906000  0.96858000  0.40370000  1.0
  Mo  Mo17  1  0.95568000  0.79220000  0.44271000  1.0
  Mo  Mo18  1  0.45062000  0.70148000  0.43815000  1.0
  Mo  Mo19  1  0.39014000  0.51798000  0.39657000  1.0
  Mo  Mo20  1  0.43991000  0.38611000  0.37014000  1.0
  Mo  Mo21  1  0.56707000  0.39503000  0.37437000  1.0
  Mo  Mo22  1  0.61094000  0.53142000  0.40370000  1.0
  Mo  Mo23  1  0.54432000  0.70780000  0.44271000  1.0
  Mo  Mo24  1  0.95062000  0.29852000  0.06185000  1.0
  Mo  Mo25  1  0.89014000  0.48202000  0.10343000  1.0
  Mo  Mo26  1  0.93991000  0.61389000  0.12986000  1.0
  Mo  Mo27  1  0.06707000  0.60497000  0.12563000  1.0
  Mo  Mo28  1  0.11094000  0.46858000  0.09630000  1.0
  Mo  Mo29  1  0.04432000  0.29220000  0.05729000  1.0
  Mo  Mo30  1  0.54938000  0.20148000  0.06185000  1.0
  Mo  Mo31  1  0.60986000  0.01798000  0.10343000  1.0
  Mo  Mo32  1  0.56009000  0.88611000  0.12986000  1.0
  Mo  Mo33  1  0.43293000  0.89503000  0.12563000  1.0
  Mo  Mo34  1  0.38906000  0.03142000  0.09630000  1.0
  Mo  Mo35  1  0.45568000  0.20780000  0.05729000  1.0
  Mo  Mo36  1  0.95062000  0.20148000  0.56185000  1.0
  Mo  Mo37  1  0.89014000  0.01798000  0.60343000  1.0
  Mo  Mo38  1  0.93991000  0.88611000  0.62986000  1.0
  Mo  Mo39  1  0.06707000  0.89503000  0.62563000  1.0
  Mo  Mo40  1  0.11094000  0.03142000  0.59630000  1.0
  Mo  Mo41  1  0.04432000  0.20780000  0.55729000  1.0
  Mo  Mo42  1  0.54938000  0.29852000  0.56185000  1.0
  Mo  Mo43  1  0.60986000  0.48202000  0.60343000  1.0
  Mo  Mo44  1  0.56009000  0.61389000  0.62986000  1.0
  Mo  Mo45  1  0.43293000  0.60497000  0.62563000  1.0
  Mo  Mo46  1  0.38906000  0.46858000  0.59630000  1.0
  Mo  Mo47  1  0.45568000  0.29220000  0.55729000  1.0
  Mo  Mo48  1  0.04938000  0.70148000  0.93815000  1.0
  Mo  Mo49  1  0.10986000  0.51798000  0.89657000  1.0
  Mo  Mo50  1  0.06009000  0.38611000  0.87014000  1.0
  Mo  Mo51  1  0.93293000  0.39503000  0.87437000  1.0
  Mo  Mo52  1  0.88906000  0.53142000  0.90370000  1.0
  Mo  Mo53  1  0.95568000  0.70780000  0.94271000  1.0
  Mo  Mo54  1  0.45062000  0.79852000  0.93815000  1.0
  Mo  Mo55  1  0.39014000  0.98202000  0.89657000  1.0
  Mo  Mo56  1  0.43991000  0.11389000  0.87014000  1.0
  Mo  Mo57  1  0.56707000  0.10497000  0.87437000  1.0
  Mo  Mo58  1  0.61094000  0.96858000  0.90370000  1.0
  Mo  Mo59  1  0.54432000  0.79220000  0.94271000  1.0
  P  P60  1  0.99126000  0.18806000  0.26247000  1.0
  P  P61  1  0.86867000  0.78090000  0.34351000  1.0
  P  P62  1  0.13316000  0.79691000  0.33476000  1.0
  P  P63  1  0.99790000  0.93374000  0.34007000  1.0
  P  P64  1  0.50874000  0.31194000  0.26247000  1.0
  P  P65  1  0.63133000  0.71910000  0.34351000  1.0
  P  P66  1  0.36684000  0.70309000  0.33476000  1.0
  P  P67  1  0.50210000  0.56626000  0.34007000  1.0
  P  P68  1  0.00874000  0.68806000  0.23753000  1.0
  P  P69  1  0.13133000  0.28090000  0.15649000  1.0
  P  P70  1  0.86684000  0.29691000  0.16524000  1.0
  P  P71  1  0.00210000  0.43374000  0.15993000  1.0
  P  P72  1  0.49126000  0.81194000  0.23753000  1.0
  P  P73  1  0.36867000  0.21910000  0.15649000  1.0
  P  P74  1  0.63316000  0.20309000  0.16524000  1.0
  P  P75  1  0.49790000  0.06626000  0.15993000  1.0
  P  P76  1  0.00874000  0.81194000  0.73753000  1.0
  P  P77  1  0.13133000  0.21910000  0.65649000  1.0
  P  P78  1  0.86684000  0.20309000  0.66524000  1.0
  P  P79  1  0.00210000  0.06626000  0.65993000  1.0
  P  P80  1  0.49126000  0.68806000  0.73753000  1.0
  P  P81  1  0.36867000  0.28090000  0.65649000  1.0
  P  P82  1  0.63316000  0.29691000  0.66524000  1.0
  P  P83  1  0.49790000  0.43374000  0.65993000  1.0
  P  P84  1  0.99126000  0.31194000  0.76247000  1.0
  P  P85  1  0.86867000  0.71910000  0.84351000  1.0
  P  P86  1  0.13316000  0.70309000  0.83476000  1.0
  P  P87  1  0.99790000  0.56626000  0.84007000  1.0
  P  P88  1  0.50874000  0.18806000  0.76247000  1.0
  P  P89  1  0.63133000  0.78090000  0.84351000  1.0
  P  P90  1  0.36684000  0.79691000  0.83476000  1.0
  P  P91  1  0.50210000  0.93374000  0.84007000  1.0
  H  H92  1  0.79700000  0.66060000  0.23860000  1.0
  H  H93  1  0.79790000  0.65800000  0.13820000  1.0
  H  H94  1  0.80890000  0.68430000  0.94900000  1.0
  H  H95  1  0.81090000  0.68260000  0.04820000  1.0
  H  H96  1  0.19380000  0.67810000  0.22920000  1.0
  H  H97  1  0.19330000  0.67410000  0.12880000  1.0
  H  H98  1  0.18510000  0.70650000  0.93910000  1.0
  H  H99  1  0.18390000  0.69930000  0.03900000  1.0
  H  H100  1  0.70300000  0.83940000  0.23860000  1.0
  H  H101  1  0.70210000  0.84200000  0.13820000  1.0
  H  H102  1  0.69110000  0.81570000  0.94900000  1.0
  H  H103  1  0.68910000  0.81740000  0.04820000  1.0
  H  H104  1  0.30620000  0.82190000  0.22920000  1.0
  H  H105  1  0.30670000  0.82590000  0.12880000  1.0
  H  H106  1  0.31490000  0.79350000  0.93910000  1.0
  H  H107  1  0.31610000  0.80070000  0.03900000  1.0
  H  H108  1  0.20300000  0.16060000  0.26140000  1.0
  H  H109  1  0.20210000  0.15800000  0.36180000  1.0
  H  H110  1  0.19110000  0.18430000  0.55100000  1.0
  H  H111  1  0.18910000  0.18260000  0.45180000  1.0
  H  H112  1  0.80620000  0.17810000  0.27080000  1.0
  H  H113  1  0.80670000  0.17410000  0.37120000  1.0
  H  H114  1  0.81490000  0.20650000  0.56090000  1.0
  H  H115  1  0.81610000  0.19930000  0.46100000  1.0
  H  H116  1  0.29700000  0.33940000  0.26140000  1.0
  H  H117  1  0.29790000  0.34200000  0.36180000  1.0
  H  H118  1  0.30890000  0.31570000  0.55100000  1.0
  H  H119  1  0.31090000  0.31740000  0.45180000  1.0
  H  H120  1  0.69380000  0.32190000  0.27080000  1.0
  H  H121  1  0.69330000  0.32590000  0.37120000  1.0
  H  H122  1  0.68510000  0.29350000  0.56090000  1.0
  H  H123  1  0.68390000  0.30070000  0.46100000  1.0
  H  H124  1  0.20300000  0.33940000  0.76140000  1.0
  H  H125  1  0.20210000  0.34200000  0.86180000  1.0
  H  H126  1  0.19110000  0.31570000  0.05100000  1.0
  H  H127  1  0.18910000  0.31740000  0.95180000  1.0
  H  H128  1  0.80620000  0.32190000  0.77080000  1.0
  H  H129  1  0.80670000  0.32590000  0.87120000  1.0
  H  H130  1  0.81490000  0.29350000  0.06090000  1.0
  H  H131  1  0.81610000  0.30070000  0.96100000  1.0
  H  H132  1  0.29700000  0.16060000  0.76140000  1.0
  H  H133  1  0.29790000  0.15800000  0.86180000  1.0
  H  H134  1  0.30890000  0.18430000  0.05100000  1.0
  H  H135  1  0.31090000  0.18260000  0.95180000  1.0
  H  H136  1  0.69380000  0.17810000  0.77080000  1.0
  H  H137  1  0.69330000  0.17410000  0.87120000  1.0
  H  H138  1  0.68510000  0.20650000  0.06090000  1.0
  H  H139  1  0.68390000  0.19930000  0.96100000  1.0
  H  H140  1  0.79700000  0.83940000  0.73860000  1.0
  H  H141  1  0.79790000  0.84200000  0.63820000  1.0
  H  H142  1  0.80890000  0.81570000  0.44900000  1.0
  H  H143  1  0.81090000  0.81740000  0.54820000  1.0
  H  H144  1  0.19380000  0.82190000  0.72920000  1.0
  H  H145  1  0.19330000  0.82590000  0.62880000  1.0
  H  H146  1  0.18510000  0.79350000  0.43910000  1.0
  H  H147  1  0.18390000  0.80070000  0.53900000  1.0
  H  H148  1  0.70300000  0.66060000  0.73860000  1.0
  H  H149  1  0.70210000  0.65800000  0.63820000  1.0
  H  H150  1  0.69110000  0.68430000  0.44900000  1.0
  H  H151  1  0.68910000  0.68260000  0.54820000  1.0
  H  H152  1  0.30620000  0.67810000  0.72920000  1.0
  H  H153  1  0.30670000  0.67410000  0.62880000  1.0
  H  H154  1  0.31490000  0.70650000  0.43910000  1.0
  H  H155  1  0.31610000  0.69930000  0.53900000  1.0
  C  C156  1  0.77740000  0.69770000  0.21830000  1.0
  C  C157  1  0.77820000  0.69600000  0.15750000  1.0
  C  C158  1  0.78440000  0.71170000  0.96930000  1.0
  C  C159  1  0.78590000  0.71020000  0.02900000  1.0
  C  C160  1  0.21730000  0.70770000  0.20880000  1.0
  C  C161  1  0.21650000  0.70570000  0.14810000  1.0
  C  C162  1  0.21240000  0.72390000  0.95970000  1.0
  C  C163  1  0.21090000  0.72080000  0.02000000  1.0
  C  C164  1  0.72260000  0.80230000  0.21830000  1.0
  C  C165  1  0.72180000  0.80400000  0.15750000  1.0
  C  C166  1  0.71560000  0.78830000  0.96930000  1.0
  C  C167  1  0.71410000  0.78980000  0.02900000  1.0
  C  C168  1  0.28270000  0.79230000  0.20880000  1.0
  C  C169  1  0.28350000  0.79430000  0.14810000  1.0
  C  C170  1  0.28760000  0.77610000  0.95970000  1.0
  C  C171  1  0.28910000  0.77920000  0.02000000  1.0
  C  C172  1  0.22260000  0.19770000  0.28170000  1.0
  C  C173  1  0.22180000  0.19600000  0.34250000  1.0
  C  C174  1  0.21560000  0.21170000  0.53070000  1.0
  C  C175  1  0.21410000  0.21020000  0.47100000  1.0
  C  C176  1  0.78270000  0.20770000  0.29120000  1.0
  C  C177  1  0.78350000  0.20570000  0.35190000  1.0
  C  C178  1  0.78760000  0.22390000  0.54030000  1.0
  C  C179  1  0.78910000  0.22080000  0.48000000  1.0
  C  C180  1  0.27740000  0.30230000  0.28170000  1.0
  C  C181  1  0.27820000  0.30400000  0.34250000  1.0
  C  C182  1  0.28440000  0.28830000  0.53070000  1.0
  C  C183  1  0.28590000  0.28980000  0.47100000  1.0
  C  C184  1  0.71730000  0.29230000  0.29120000  1.0
  C  C185  1  0.71650000  0.29430000  0.35190000  1.0
  C  C186  1  0.71240000  0.27610000  0.54030000  1.0
  C  C187  1  0.71090000  0.27920000  0.48000000  1.0
  C  C188  1  0.22260000  0.30230000  0.78170000  1.0
  C  C189  1  0.22180000  0.30400000  0.84250000  1.0
  C  C190  1  0.21560000  0.28830000  0.03070000  1.0
  C  C191  1  0.21410000  0.28980000  0.97100000  1.0
  C  C192  1  0.78270000  0.29230000  0.79120000  1.0
  C  C193  1  0.78350000  0.29430000  0.85190000  1.0
  C  C194  1  0.78760000  0.27610000  0.04030000  1.0
  C  C195  1  0.78910000  0.27920000  0.98000000  1.0
  C  C196  1  0.27740000  0.19770000  0.78170000  1.0
  C  C197  1  0.27820000  0.19600000  0.84250000  1.0
  C  C198  1  0.28440000  0.21170000  0.03070000  1.0
  C  C199  1  0.28590000  0.21020000  0.97100000  1.0
  C  C200  1  0.71730000  0.20770000  0.79120000  1.0
  C  C201  1  0.71650000  0.20570000  0.85190000  1.0
  C  C202  1  0.71240000  0.22390000  0.04030000  1.0
  C  C203  1  0.71090000  0.22080000  0.98000000  1.0
  C  C204  1  0.77740000  0.80230000  0.71830000  1.0
  C  C205  1  0.77820000  0.80400000  0.65750000  1.0
  C  C206  1  0.78440000  0.78830000  0.46930000  1.0
  C  C207  1  0.78590000  0.78980000  0.52900000  1.0
  C  C208  1  0.21730000  0.79230000  0.70880000  1.0
  C  C209  1  0.21650000  0.79430000  0.64810000  1.0
  C  C210  1  0.21240000  0.77610000  0.45970000  1.0
  C  C211  1  0.21090000  0.77920000  0.52000000  1.0
  C  C212  1  0.72260000  0.69770000  0.71830000  1.0
  C  C213  1  0.72180000  0.69600000  0.65750000  1.0
  C  C214  1  0.71560000  0.71170000  0.46930000  1.0
  C  C215  1  0.71410000  0.71020000  0.52900000  1.0
  C  C216  1  0.28270000  0.70770000  0.70880000  1.0
  C  C217  1  0.28350000  0.70570000  0.64810000  1.0
  C  C218  1  0.28760000  0.72390000  0.45970000  1.0
  C  C219  1  0.28910000  0.72080000  0.52000000  1.0
  C  C220  1  0.75000000  0.75000000  0.12610000  1.0
  C  C221  1  0.75000000  0.75000000  0.06080000  1.0
  C  C222  1  0.25000000  0.25000000  0.37390000  1.0
  C  C223  1  0.25000000  0.25000000  0.43920000  1.0
  C  C224  1  0.25000000  0.25000000  0.87390000  1.0
  C  C225  1  0.25000000  0.25000000  0.93920000  1.0
  C  C226  1  0.75000000  0.75000000  0.62610000  1.0
  C  C227  1  0.75000000  0.75000000  0.56080000  1.0
  C  C228  1  0.25000000  0.75000000  0.11650000  1.0
  C  C229  1  0.25000000  0.75000000  0.05190000  1.0
  C  C230  1  0.75000000  0.25000000  0.38350000  1.0
  C  C231  1  0.75000000  0.25000000  0.44810000  1.0
  C  C232  1  0.75000000  0.25000000  0.88350000  1.0
  C  C233  1  0.75000000  0.25000000  0.94810000  1.0
  C  C234  1  0.25000000  0.75000000  0.61650000  1.0
  C  C235  1  0.25000000  0.75000000  0.55190000  1.0
  N  N236  1  0.75000000  0.75000000  0.24840000  1.0
  N  N237  1  0.75000000  0.75000000  0.93820000  1.0
  N  N238  1  0.25000000  0.25000000  0.25160000  1.0
  N  N239  1  0.25000000  0.25000000  0.56180000  1.0
  N  N240  1  0.25000000  0.25000000  0.75160000  1.0
  N  N241  1  0.25000000  0.25000000  0.06180000  1.0
  N  N242  1  0.75000000  0.75000000  0.74840000  1.0
  N  N243  1  0.75000000  0.75000000  0.43820000  1.0
  N  N244  1  0.25000000  0.75000000  0.23860000  1.0
  N  N245  1  0.25000000  0.75000000  0.92950000  1.0
  N  N246  1  0.75000000  0.25000000  0.26140000  1.0
  N  N247  1  0.75000000  0.25000000  0.57050000  1.0
  N  N248  1  0.75000000  0.25000000  0.76140000  1.0
  N  N249  1  0.75000000  0.25000000  0.07050000  1.0
  N  N250  1  0.25000000  0.75000000  0.73860000  1.0
  N  N251  1  0.25000000  0.75000000  0.42950000  1.0
  O  O252  1  0.89618000  0.02450000  0.32978000  1.0
  O  O253  1  0.93999000  0.03270000  0.44436000  1.0
  O  O254  1  0.00193000  0.73970000  0.39100000  1.0
  O  O255  1  0.09734000  0.03690000  0.32308000  1.0
  O  O256  1  0.05796000  0.04010000  0.43997000  1.0
  O  O257  1  0.90150000  0.87590000  0.46590000  1.0
  O  O258  1  0.99738000  0.02870000  0.34688000  1.0
  O  O259  1  0.00206000  0.87270000  0.47609000  1.0
  O  O260  1  0.90399000  0.74510000  0.38802000  1.0
  O  O261  1  0.10107000  0.88770000  0.45839000  1.0
  O  O262  1  0.89384000  0.78020000  0.28157000  1.0
  O  O263  1  0.99370000  0.91740000  0.27386000  1.0
  O  O264  1  0.09760000  0.75740000  0.37778000  1.0
  O  O265  1  0.10994000  0.79760000  0.27230000  1.0
  O  O266  1  0.85739000  0.87310000  0.35539000  1.0
  O  O267  1  0.14463000  0.88810000  0.35071000  1.0
  O  O268  1  0.99562000  0.16780000  0.40101000  1.0
  O  O269  1  0.04458000  0.89920000  0.36594000  1.0
  O  O270  1  0.98103000  0.27970000  0.25620000  1.0
  O  O271  1  0.94800000  0.14910000  0.29323000  1.0
  O  O272  1  0.17781000  0.74480000  0.33132000  1.0
  O  O273  1  0.82329000  0.72930000  0.34113000  1.0
  O  O274  1  0.03942000  0.16890000  0.29184000  1.0
  O  O275  1  0.95471000  0.89530000  0.37216000  1.0
  O  O276  1  0.99287000  0.14680000  0.20020000  1.0
  O  O277  1  0.60382000  0.47550000  0.32978000  1.0
  O  O278  1  0.56001000  0.46730000  0.44436000  1.0
  O  O279  1  0.49807000  0.76030000  0.39100000  1.0
  O  O280  1  0.40266000  0.46310000  0.32308000  1.0
  O  O281  1  0.44204000  0.45990000  0.43997000  1.0
  O  O282  1  0.59850000  0.62410000  0.46590000  1.0
  O  O283  1  0.50262000  0.47130000  0.34688000  1.0
  O  O284  1  0.49794000  0.62730000  0.47609000  1.0
  O  O285  1  0.59601000  0.75490000  0.38802000  1.0
  O  O286  1  0.39893000  0.61230000  0.45839000  1.0
  O  O287  1  0.60616000  0.71980000  0.28157000  1.0
  O  O288  1  0.50630000  0.58260000  0.27386000  1.0
  O  O289  1  0.40240000  0.74260000  0.37778000  1.0
  O  O290  1  0.39006000  0.70240000  0.27230000  1.0
  O  O291  1  0.64261000  0.62690000  0.35539000  1.0
  O  O292  1  0.35537000  0.61190000  0.35071000  1.0
  O  O293  1  0.50438000  0.33220000  0.40101000  1.0
  O  O294  1  0.45542000  0.60080000  0.36594000  1.0
  O  O295  1  0.51897000  0.22030000  0.25620000  1.0
  O  O296  1  0.55200000  0.35090000  0.29323000  1.0
  O  O297  1  0.32219000  0.75520000  0.33132000  1.0
  O  O298  1  0.67671000  0.77070000  0.34113000  1.0
  O  O299  1  0.46058000  0.33110000  0.29184000  1.0
  O  O300  1  0.54529000  0.60470000  0.37216000  1.0
  O  O301  1  0.50713000  0.35320000  0.20020000  1.0
  O  O302  1  0.10382000  0.52450000  0.17022000  1.0
  O  O303  1  0.06001000  0.53270000  0.05564000  1.0
  O  O304  1  0.99807000  0.23970000  0.10900000  1.0
  O  O305  1  0.90266000  0.53690000  0.17692000  1.0
  O  O306  1  0.94204000  0.54010000  0.06003000  1.0
  O  O307  1  0.09850000  0.37590000  0.03410000  1.0
  O  O308  1  0.00262000  0.52870000  0.15312000  1.0
  O  O309  1  0.99794000  0.37270000  0.02391000  1.0
  O  O310  1  0.09601000  0.24510000  0.11198000  1.0
  O  O311  1  0.89893000  0.38770000  0.04161000  1.0
  O  O312  1  0.10616000  0.28020000  0.21843000  1.0
  O  O313  1  0.00630000  0.41740000  0.22614000  1.0
  O  O314  1  0.90240000  0.25740000  0.12222000  1.0
  O  O315  1  0.89006000  0.29760000  0.22770000  1.0
  O  O316  1  0.14261000  0.37310000  0.14461000  1.0
  O  O317  1  0.85537000  0.38810000  0.14929000  1.0
  O  O318  1  0.00438000  0.66780000  0.09899000  1.0
  O  O319  1  0.95542000  0.39920000  0.13406000  1.0
  O  O320  1  0.01897000  0.77970000  0.24380000  1.0
  O  O321  1  0.05200000  0.64910000  0.20677000  1.0
  O  O322  1  0.82219000  0.24480000  0.16868000  1.0
  O  O323  1  0.17671000  0.22930000  0.15887000  1.0
  O  O324  1  0.96058000  0.66890000  0.20816000  1.0
  O  O325  1  0.04529000  0.39530000  0.12784000  1.0
  O  O326  1  0.00713000  0.64680000  0.29980000  1.0
  O  O327  1  0.39618000  0.97550000  0.17022000  1.0
  O  O328  1  0.43999000  0.96730000  0.05564000  1.0
  O  O329  1  0.50193000  0.26030000  0.10900000  1.0
  O  O330  1  0.59734000  0.96310000  0.17692000  1.0
  O  O331  1  0.55796000  0.95990000  0.06003000  1.0
  O  O332  1  0.40150000  0.12410000  0.03410000  1.0
  O  O333  1  0.49738000  0.97130000  0.15312000  1.0
  O  O334  1  0.50206000  0.12730000  0.02391000  1.0
  O  O335  1  0.40399000  0.25490000  0.11198000  1.0
  O  O336  1  0.60107000  0.11230000  0.04161000  1.0
  O  O337  1  0.39384000  0.21980000  0.21843000  1.0
  O  O338  1  0.49370000  0.08260000  0.22614000  1.0
  O  O339  1  0.59760000  0.24260000  0.12222000  1.0
  O  O340  1  0.60994000  0.20240000  0.22770000  1.0
  O  O341  1  0.35739000  0.12690000  0.14461000  1.0
  O  O342  1  0.64463000  0.11190000  0.14929000  1.0
  O  O343  1  0.49562000  0.83220000  0.09899000  1.0
  O  O344  1  0.54458000  0.10080000  0.13406000  1.0
  O  O345  1  0.48103000  0.72030000  0.24380000  1.0
  O  O346  1  0.44800000  0.85090000  0.20677000  1.0
  O  O347  1  0.67781000  0.25520000  0.16868000  1.0
  O  O348  1  0.32329000  0.27070000  0.15887000  1.0
  O  O349  1  0.53942000  0.83110000  0.20816000  1.0
  O  O350  1  0.45471000  0.10470000  0.12784000  1.0
  O  O351  1  0.49287000  0.85320000  0.29980000  1.0
  O  O352  1  0.10382000  0.97550000  0.67022000  1.0
  O  O353  1  0.06001000  0.96730000  0.55564000  1.0
  O  O354  1  0.99807000  0.26030000  0.60900000  1.0
  O  O355  1  0.90266000  0.96310000  0.67692000  1.0
  O  O356  1  0.94204000  0.95990000  0.56003000  1.0
  O  O357  1  0.09850000  0.12410000  0.53410000  1.0
  O  O358  1  0.00262000  0.97130000  0.65312000  1.0
  O  O359  1  0.99794000  0.12730000  0.52391000  1.0
  O  O360  1  0.09601000  0.25490000  0.61198000  1.0
  O  O361  1  0.89893000  0.11230000  0.54161000  1.0
  O  O362  1  0.10616000  0.21980000  0.71843000  1.0
  O  O363  1  0.00630000  0.08260000  0.72614000  1.0
  O  O364  1  0.90240000  0.24260000  0.62222000  1.0
  O  O365  1  0.89006000  0.20240000  0.72770000  1.0
  O  O366  1  0.14261000  0.12690000  0.64461000  1.0
  O  O367  1  0.85537000  0.11190000  0.64929000  1.0
  O  O368  1  0.00438000  0.83220000  0.59899000  1.0
  O  O369  1  0.95542000  0.10080000  0.63406000  1.0
  O  O370  1  0.01897000  0.72030000  0.74380000  1.0
  O  O371  1  0.05200000  0.85090000  0.70677000  1.0
  O  O372  1  0.82219000  0.25520000  0.66868000  1.0
  O  O373  1  0.17671000  0.27070000  0.65887000  1.0
  O  O374  1  0.96058000  0.83110000  0.70816000  1.0
  O  O375  1  0.04529000  0.10470000  0.62784000  1.0
  O  O376  1  0.00713000  0.85320000  0.79980000  1.0
  O  O377  1  0.39618000  0.52450000  0.67022000  1.0
  O  O378  1  0.43999000  0.53270000  0.55564000  1.0
  O  O379  1  0.50193000  0.23970000  0.60900000  1.0
  O  O380  1  0.59734000  0.53690000  0.67692000  1.0
  O  O381  1  0.55796000  0.54010000  0.56003000  1.0
  O  O382  1  0.40150000  0.37590000  0.53410000  1.0
  O  O383  1  0.49738000  0.52870000  0.65312000  1.0
  O  O384  1  0.50206000  0.37270000  0.52391000  1.0
  O  O385  1  0.40399000  0.24510000  0.61198000  1.0
  O  O386  1  0.60107000  0.38770000  0.54161000  1.0
  O  O387  1  0.39384000  0.28020000  0.71843000  1.0
  O  O388  1  0.49370000  0.41740000  0.72614000  1.0
  O  O389  1  0.59760000  0.25740000  0.62222000  1.0
  O  O390  1  0.60994000  0.29760000  0.72770000  1.0
  O  O391  1  0.35739000  0.37310000  0.64461000  1.0
  O  O392  1  0.64463000  0.38810000  0.64929000  1.0
  O  O393  1  0.49562000  0.66780000  0.59899000  1.0
  O  O394  1  0.54458000  0.39920000  0.63406000  1.0
  O  O395  1  0.48103000  0.77970000  0.74380000  1.0
  O  O396  1  0.44800000  0.64910000  0.70677000  1.0
  O  O397  1  0.67781000  0.24480000  0.66868000  1.0
  O  O398  1  0.32329000  0.22930000  0.65887000  1.0
  O  O399  1  0.53942000  0.66890000  0.70816000  1.0
  O  O400  1  0.45471000  0.39530000  0.62784000  1.0
  O  O401  1  0.49287000  0.64680000  0.79980000  1.0
  O  O402  1  0.89618000  0.47550000  0.82978000  1.0
  O  O403  1  0.93999000  0.46730000  0.94436000  1.0
  O  O404  1  0.00193000  0.76030000  0.89100000  1.0
  O  O405  1  0.09734000  0.46310000  0.82308000  1.0
  O  O406  1  0.05796000  0.45990000  0.93997000  1.0
  O  O407  1  0.90150000  0.62410000  0.96590000  1.0
  O  O408  1  0.99738000  0.47130000  0.84688000  1.0
  O  O409  1  0.00206000  0.62730000  0.97609000  1.0
  O  O410  1  0.90399000  0.75490000  0.88802000  1.0
  O  O411  1  0.10107000  0.61230000  0.95839000  1.0
  O  O412  1  0.89384000  0.71980000  0.78157000  1.0
  O  O413  1  0.99370000  0.58260000  0.77386000  1.0
  O  O414  1  0.09760000  0.74260000  0.87778000  1.0
  O  O415  1  0.10994000  0.70240000  0.77230000  1.0
  O  O416  1  0.85739000  0.62690000  0.85539000  1.0
  O  O417  1  0.14463000  0.61190000  0.85071000  1.0
  O  O418  1  0.99562000  0.33220000  0.90101000  1.0
  O  O419  1  0.04458000  0.60080000  0.86594000  1.0
  O  O420  1  0.98103000  0.22030000  0.75620000  1.0
  O  O421  1  0.94800000  0.35090000  0.79323000  1.0
  O  O422  1  0.17781000  0.75520000  0.83132000  1.0
  O  O423  1  0.82329000  0.77070000  0.84113000  1.0
  O  O424  1  0.03942000  0.33110000  0.79184000  1.0
  O  O425  1  0.95471000  0.60470000  0.87216000  1.0
  O  O426  1  0.99287000  0.35320000  0.70020000  1.0
  O  O427  1  0.60382000  0.02450000  0.82978000  1.0
  O  O428  1  0.56001000  0.03270000  0.94436000  1.0
  O  O429  1  0.49807000  0.73970000  0.89100000  1.0
  O  O430  1  0.40266000  0.03690000  0.82308000  1.0
  O  O431  1  0.44204000  0.04010000  0.93997000  1.0
  O  O432  1  0.59850000  0.87590000  0.96590000  1.0
  O  O433  1  0.50262000  0.02870000  0.84688000  1.0
  O  O434  1  0.49794000  0.87270000  0.97609000  1.0
  O  O435  1  0.59601000  0.74510000  0.88802000  1.0
  O  O436  1  0.39893000  0.88770000  0.95839000  1.0
  O  O437  1  0.60616000  0.78020000  0.78157000  1.0
  O  O438  1  0.50630000  0.91740000  0.77386000  1.0
  O  O439  1  0.40240000  0.75740000  0.87778000  1.0
  O  O440  1  0.39006000  0.79760000  0.77230000  1.0
  O  O441  1  0.64261000  0.87310000  0.85539000  1.0
  O  O442  1  0.35537000  0.88810000  0.85071000  1.0
  O  O443  1  0.50438000  0.16780000  0.90101000  1.0
  O  O444  1  0.45542000  0.89920000  0.86594000  1.0
  O  O445  1  0.51897000  0.27970000  0.75620000  1.0
  O  O446  1  0.55200000  0.14910000  0.79323000  1.0
  O  O447  1  0.32219000  0.74480000  0.83132000  1.0
  O  O448  1  0.67671000  0.72930000  0.84113000  1.0
  O  O449  1  0.46058000  0.16890000  0.79184000  1.0
  O  O450  1  0.54529000  0.89530000  0.87216000  1.0
  O  O451  1  0.50713000  0.14680000  0.70020000  1.0
