# generated using pymatgen
data_V2NiH10C12N2O5
_symmetry_space_group_name_H-M   'P 1'
_cell_length_a   7.70860000
_cell_length_b   11.40070000
_cell_length_c   13.49900000
_cell_angle_alpha   96.39500000
_cell_angle_beta   105.61900000
_cell_angle_gamma   99.33900000
_symmetry_Int_Tables_number   1
_chemical_formula_structural   V2NiH10C12N2O5
_chemical_formula_sum   'V4 Ni2 H20 C24 N4 O10'
_cell_volume   1112.27578420
_cell_formula_units_Z   2
loop_
 _symmetry_equiv_pos_site_id
 _symmetry_equiv_pos_as_xyz
  1  'x, y, z'
loop_
 _atom_site_type_symbol
 _atom_site_label
 _atom_site_symmetry_multiplicity
 _atom_site_fract_x
 _atom_site_fract_y
 _atom_site_fract_z
 _atom_site_occupancy
  V  V0  1  0.85707000  0.67711000  0.97466000  1.0
  V  V1  1  0.79402000  0.42040000  0.85922000  1.0
  V  V2  1  0.14293000  0.32289000  0.02534000  1.0
  V  V3  1  0.20598000  0.57960000  0.14078000  1.0
  Ni  Ni4  1  0.50000000  0.50000000  0.00000000  1.0
  Ni  Ni5  1  0.00000000  0.00000000  0.00000000  1.0
  H  H6  1  0.09140000  0.86720000  0.82290000  1.0
  H  H7  1  0.09560000  0.87780000  0.65470000  1.0
  H  H8  1  0.87020000  0.17140000  0.66760000  1.0
  H  H9  1  0.86330000  0.14770000  0.83380000  1.0
  H  H10  1  0.95730000  0.11170000  0.51110000  1.0
  H  H11  1  0.65150000  0.65450000  0.21780000  1.0
  H  H12  1  0.82050000  0.64530000  0.38410000  1.0
  H  H13  1  0.91590000  0.32740000  0.27470000  1.0
  H  H14  1  0.73550000  0.34200000  0.11250000  1.0
  H  H15  1  0.06140000  0.40610000  0.45740000  1.0
  H  H16  1  0.90860000  0.13280000  0.17710000  1.0
  H  H17  1  0.90440000  0.12220000  0.34530000  1.0
  H  H18  1  0.12980000  0.82860000  0.33240000  1.0
  H  H19  1  0.13670000  0.85230000  0.16620000  1.0
  H  H20  1  0.04270000  0.88830000  0.48890000  1.0
  H  H21  1  0.34850000  0.34550000  0.78220000  1.0
  H  H22  1  0.17950000  0.35470000  0.61590000  1.0
  H  H23  1  0.08410000  0.67260000  0.72530000  1.0
  H  H24  1  0.26450000  0.65800000  0.88750000  1.0
  H  H25  1  0.93860000  0.59390000  0.54260000  1.0
  C  C26  1  0.04570000  0.92856000  0.79082000  1.0
  C  C27  1  0.04940000  0.93448000  0.68963000  1.0
  C  C28  1  0.98280000  0.02681000  0.64043000  1.0
  C  C29  1  0.91440000  0.10815000  0.69705000  1.0
  C  C30  1  0.91280000  0.09417000  0.79773000  1.0
  C  C31  1  0.98300000  0.04053000  0.53358000  1.0
  C  C32  1  0.70230000  0.58693000  0.22992000  1.0
  C  C33  1  0.80530000  0.58242000  0.33037000  1.0
  C  C34  1  0.88640000  0.48297000  0.35076000  1.0
  C  C35  1  0.86070000  0.39367000  0.26571000  1.0
  C  C36  1  0.75280000  0.40355000  0.16766000  1.0
  C  C37  1  0.99460000  0.46727000  0.45471000  1.0
  C  C38  1  0.95430000  0.07144000  0.20918000  1.0
  C  C39  1  0.95060000  0.06552000  0.31037000  1.0
  C  C40  1  0.01720000  0.97319000  0.35957000  1.0
  C  C41  1  0.08560000  0.89185000  0.30295000  1.0
  C  C42  1  0.08720000  0.90583000  0.20227000  1.0
  C  C43  1  0.01700000  0.95947000  0.46642000  1.0
  C  C44  1  0.29770000  0.41307000  0.77008000  1.0
  C  C45  1  0.19470000  0.41758000  0.66963000  1.0
  C  C46  1  0.11360000  0.51703000  0.64924000  1.0
  C  C47  1  0.13930000  0.60633000  0.73429000  1.0
  C  C48  1  0.24720000  0.59645000  0.83234000  1.0
  C  C49  1  0.00540000  0.53273000  0.54529000  1.0
  N  N50  1  0.97940000  0.00687000  0.84495000  1.0
  N  N51  1  0.67236000  0.49793000  0.14906000  1.0
  N  N52  1  0.02060000  0.99313000  0.15505000  1.0
  N  N53  1  0.32764000  0.50207000  0.85094000  1.0
  O  O54  1  0.65299000  0.40436000  0.93245000  1.0
  O  O55  1  0.64692000  0.66458000  0.98910000  1.0
  O  O56  1  0.99959000  0.63170000  0.08418000  1.0
  O  O57  1  0.94085000  0.81669000  0.96700000  1.0
  O  O58  1  0.84751000  0.58034000  0.85778000  1.0
  O  O59  1  0.34701000  0.59564000  0.06755000  1.0
  O  O60  1  0.35308000  0.33542000  0.01090000  1.0
  O  O61  1  0.00041000  0.36830000  0.91582000  1.0
  O  O62  1  0.05915000  0.18331000  0.03300000  1.0
  O  O63  1  0.15249000  0.41966000  0.14222000  1.0
