# generated using pymatgen
data_TbCuH8C16N5O8
_symmetry_space_group_name_H-M   'P 1'
_cell_length_a   10.67200000
_cell_length_b   10.71940000
_cell_length_c   11.93510000
_cell_angle_alpha   70.34100000
_cell_angle_beta   77.92800000
_cell_angle_gamma   60.85440000
_symmetry_Int_Tables_number   1
_chemical_formula_structural   TbCuH8C16N5O8
_chemical_formula_sum   'Tb2 Cu2 H16 C32 N10 O16'
_cell_volume   1121.26015173
_cell_formula_units_Z   2
loop_
 _symmetry_equiv_pos_site_id
 _symmetry_equiv_pos_as_xyz
  1  'x, y, z'
loop_
 _atom_site_type_symbol
 _atom_site_label
 _atom_site_symmetry_multiplicity
 _atom_site_fract_x
 _atom_site_fract_y
 _atom_site_fract_z
 _atom_site_occupancy
  Tb  Tb0  1  0.54938000  0.99827000  0.16246000  1.0
  Tb  Tb1  1  0.45062000  0.00173000  0.83754000  1.0
  Cu  Cu2  1  0.00000000  0.00000000  0.00000000  1.0
  Cu  Cu3  1  0.00000000  0.00000000  0.50000000  1.0
  H  H4  1  0.01060000  0.27080000  0.51480000  1.0
  H  H5  1  0.91400000  0.52100000  0.42850000  1.0
  H  H6  1  0.68550000  0.47940000  0.23310000  1.0
  H  H7  1  0.78110000  0.23120000  0.32880000  1.0
  H  H8  1  0.99480000  0.72150000  0.17690000  1.0
  H  H9  1  0.13140000  0.46920000  0.22060000  1.0
  H  H10  1  0.39340000  0.53050000  0.93650000  1.0
  H  H11  1  0.25180000  0.77930000  0.90060000  1.0
  H  H12  1  0.98940000  0.72920000  0.48520000  1.0
  H  H13  1  0.08600000  0.47900000  0.57150000  1.0
  H  H14  1  0.31450000  0.52060000  0.76690000  1.0
  H  H15  1  0.21890000  0.76880000  0.67120000  1.0
  H  H16  1  0.00520000  0.27850000  0.82310000  1.0
  H  H17  1  0.86860000  0.53080000  0.77940000  1.0
  H  H18  1  0.60660000  0.46950000  0.06350000  1.0
  H  H19  1  0.74820000  0.22070000  0.09940000  1.0
  C  C20  1  0.17820000  0.97720000  0.28310000  1.0
  C  C21  1  0.17290000  0.98820000  0.16510000  1.0
  C  C22  1  0.28370000  0.96520000  0.35810000  1.0
  C  C23  1  0.26470000  0.00190000  0.05530000  1.0
  C  C24  1  0.94370000  0.31340000  0.45730000  1.0
  C  C25  1  0.88630000  0.46380000  0.40530000  1.0
  C  C26  1  0.78860000  0.53020000  0.31960000  1.0
  C  C27  1  0.75120000  0.43960000  0.29100000  1.0
  C  C28  1  0.81040000  0.29000000  0.34780000  1.0
  C  C29  1  0.72390000  0.69360000  0.25700000  1.0
  C  C30  1  0.07660000  0.68190000  0.12870000  1.0
  C  C31  1  0.15730000  0.53050000  0.15470000  1.0
  C  C32  1  0.27830000  0.46910000  0.08170000  1.0
  C  C33  1  0.31260000  0.56690000  0.98640000  1.0
  C  C34  1  0.22810000  0.71570000  0.96590000  1.0
  C  C35  1  0.37060000  0.30540000  0.10830000  1.0
  C  C36  1  0.82180000  0.02280000  0.71690000  1.0
  C  C37  1  0.82710000  0.01180000  0.83490000  1.0
  C  C38  1  0.71630000  0.03480000  0.64190000  1.0
  C  C39  1  0.73530000  0.99810000  0.94470000  1.0
  C  C40  1  0.05630000  0.68660000  0.54270000  1.0
  C  C41  1  0.11370000  0.53620000  0.59470000  1.0
  C  C42  1  0.21140000  0.46980000  0.68040000  1.0
  C  C43  1  0.24880000  0.56040000  0.70900000  1.0
  C  C44  1  0.18960000  0.71000000  0.65220000  1.0
  C  C45  1  0.27610000  0.30640000  0.74300000  1.0
  C  C46  1  0.92340000  0.31810000  0.87130000  1.0
  C  C47  1  0.84270000  0.46950000  0.84530000  1.0
  C  C48  1  0.72170000  0.53090000  0.91830000  1.0
  C  C49  1  0.68740000  0.43310000  0.01360000  1.0
  C  C50  1  0.77190000  0.28430000  0.03410000  1.0
  C  C51  1  0.62940000  0.69460000  0.89170000  1.0
  N  N52  1  0.05480000  0.97610000  0.33770000  1.0
  N  N53  1  0.97610000  0.98150000  0.26130000  1.0
  N  N54  1  0.04760000  0.98970000  0.15530000  1.0
  N  N55  1  0.90720000  0.22660000  0.42830000  1.0
  N  N56  1  0.11150000  0.77470000  0.03640000  1.0
  N  N57  1  0.94520000  0.02390000  0.66230000  1.0
  N  N58  1  0.02390000  0.01850000  0.73870000  1.0
  N  N59  1  0.95240000  0.01030000  0.84470000  1.0
  N  N60  1  0.09280000  0.77340000  0.57170000  1.0
  N  N61  1  0.88850000  0.22530000  0.96360000  1.0
  O  O62  1  0.23460000  0.99180000  0.45590000  1.0
  O  O63  1  0.41360000  0.92310000  0.31920000  1.0
  O  O64  1  0.38180000  0.00410000  0.05630000  1.0
  O  O65  1  0.22320000  0.01290000  0.95880000  1.0
  O  O66  1  0.73960000  0.78110000  0.29490000  1.0
  O  O67  1  0.64990000  0.74030000  0.16920000  1.0
  O  O68  1  0.48630000  0.25520000  0.04750000  1.0
  O  O69  1  0.33250000  0.21950000  0.19250000  1.0
  O  O70  1  0.76540000  0.00820000  0.54410000  1.0
  O  O71  1  0.58640000  0.07690000  0.68080000  1.0
  O  O72  1  0.61820000  0.99590000  0.94370000  1.0
  O  O73  1  0.77680000  0.98710000  0.04120000  1.0
  O  O74  1  0.26040000  0.21890000  0.70510000  1.0
  O  O75  1  0.35010000  0.25970000  0.83080000  1.0
  O  O76  1  0.51370000  0.74480000  0.95250000  1.0
  O  O77  1  0.66750000  0.78050000  0.80750000  1.0
