# generated using pymatgen
data_HoCuH8C16N5O8
_symmetry_space_group_name_H-M   'P 1'
_cell_length_a   10.63900000
_cell_length_b   10.69820000
_cell_length_c   11.93750000
_cell_angle_alpha   70.07800000
_cell_angle_beta   77.61000000
_cell_angle_gamma   60.79970000
_symmetry_Int_Tables_number   1
_chemical_formula_structural   HoCuH8C16N5O8
_chemical_formula_sum   'Ho2 Cu2 H16 C32 N10 O16'
_cell_volume   1113.12846318
_cell_formula_units_Z   2
loop_
 _symmetry_equiv_pos_site_id
 _symmetry_equiv_pos_as_xyz
  1  'x, y, z'
loop_
 _atom_site_type_symbol
 _atom_site_label
 _atom_site_symmetry_multiplicity
 _atom_site_fract_x
 _atom_site_fract_y
 _atom_site_fract_z
 _atom_site_occupancy
  Ho  Ho0  1  0.54876000  0.99808000  0.16083000  1.0
  Ho  Ho1  1  0.45124000  0.00192000  0.83917000  1.0
  Cu  Cu2  1  0.00000000  0.00000000  0.00000000  1.0
  Cu  Cu3  1  0.00000000  0.00000000  0.50000000  1.0
  H  H4  1  0.00960000  0.27300000  0.51400000  1.0
  H  H5  1  0.91220000  0.52470000  0.42830000  1.0
  H  H6  1  0.68680000  0.47990000  0.23100000  1.0
  H  H7  1  0.78340000  0.23070000  0.32780000  1.0
  H  H8  1  0.99710000  0.72130000  0.17870000  1.0
  H  H9  1  0.13180000  0.46610000  0.22070000  1.0
  H  H10  1  0.39420000  0.52970000  0.93560000  1.0
  H  H11  1  0.25340000  0.77790000  0.90020000  1.0
  H  H12  1  0.99040000  0.72700000  0.48600000  1.0
  H  H13  1  0.08780000  0.47530000  0.57170000  1.0
  H  H14  1  0.31320000  0.52010000  0.76900000  1.0
  H  H15  1  0.21660000  0.76930000  0.67220000  1.0
  H  H16  1  0.00290000  0.27870000  0.82130000  1.0
  H  H17  1  0.86820000  0.53390000  0.77930000  1.0
  H  H18  1  0.60580000  0.47030000  0.06440000  1.0
  H  H19  1  0.74660000  0.22210000  0.09980000  1.0
  C  C20  1  0.17750000  0.97800000  0.28190000  1.0
  C  C21  1  0.17170000  0.98870000  0.16430000  1.0
  C  C22  1  0.28440000  0.96480000  0.35710000  1.0
  C  C23  1  0.26490000  0.00280000  0.05390000  1.0
  C  C24  1  0.94290000  0.31540000  0.45640000  1.0
  C  C25  1  0.88610000  0.46660000  0.40470000  1.0
  C  C26  1  0.78990000  0.53060000  0.31730000  1.0
  C  C27  1  0.75230000  0.44020000  0.28900000  1.0
  C  C28  1  0.81180000  0.29020000  0.34700000  1.0
  C  C29  1  0.72080000  0.69690000  0.25580000  1.0
  C  C30  1  0.07790000  0.68150000  0.12930000  1.0
  C  C31  1  0.15830000  0.52810000  0.15520000  1.0
  C  C32  1  0.27940000  0.46820000  0.08140000  1.0
  C  C33  1  0.31330000  0.56590000  0.98610000  1.0
  C  C34  1  0.22900000  0.71440000  0.96580000  1.0
  C  C35  1  0.37080000  0.30320000  0.10710000  1.0
  C  C36  1  0.82250000  0.02200000  0.71810000  1.0
  C  C37  1  0.82830000  0.01130000  0.83570000  1.0
  C  C38  1  0.71560000  0.03520000  0.64290000  1.0
  C  C39  1  0.73510000  0.99720000  0.94610000  1.0
  C  C40  1  0.05710000  0.68460000  0.54360000  1.0
  C  C41  1  0.11390000  0.53340000  0.59530000  1.0
  C  C42  1  0.21010000  0.46940000  0.68270000  1.0
  C  C43  1  0.24770000  0.55980000  0.71100000  1.0
  C  C44  1  0.18820000  0.70980000  0.65300000  1.0
  C  C45  1  0.27920000  0.30310000  0.74420000  1.0
  C  C46  1  0.92210000  0.31850000  0.87070000  1.0
  C  C47  1  0.84170000  0.47190000  0.84480000  1.0
  C  C48  1  0.72060000  0.53180000  0.91860000  1.0
  C  C49  1  0.68670000  0.43410000  0.01390000  1.0
  C  C50  1  0.77100000  0.28560000  0.03420000  1.0
  C  C51  1  0.62920000  0.69680000  0.89290000  1.0
  N  N52  1  0.05390000  0.97650000  0.33700000  1.0
  N  N53  1  0.97550000  0.98110000  0.26190000  1.0
  N  N54  1  0.04730000  0.98970000  0.15600000  1.0
  N  N55  1  0.90790000  0.22650000  0.42890000  1.0
  N  N56  1  0.11210000  0.77470000  0.03560000  1.0
  N  N57  1  0.94610000  0.02350000  0.66300000  1.0
  N  N58  1  0.02450000  0.01890000  0.73810000  1.0
  N  N59  1  0.95270000  0.01030000  0.84400000  1.0
  N  N60  1  0.09210000  0.77350000  0.57110000  1.0
  N  N61  1  0.88790000  0.22530000  0.96440000  1.0
  O  O62  1  0.23510000  0.99210000  0.45450000  1.0
  O  O63  1  0.41370000  0.92300000  0.31730000  1.0
  O  O64  1  0.38210000  0.00480000  0.05660000  1.0
  O  O65  1  0.22340000  0.01460000  0.95820000  1.0
  O  O66  1  0.73820000  0.78320000  0.29260000  1.0
  O  O67  1  0.64940000  0.74120000  0.16810000  1.0
  O  O68  1  0.48700000  0.25340000  0.04610000  1.0
  O  O69  1  0.33310000  0.21760000  0.19160000  1.0
  O  O70  1  0.76490000  0.00790000  0.54550000  1.0
  O  O71  1  0.58630000  0.07700000  0.68270000  1.0
  O  O72  1  0.61790000  0.99520000  0.94340000  1.0
  O  O73  1  0.77660000  0.98540000  0.04180000  1.0
  O  O74  1  0.26180000  0.21680000  0.70740000  1.0
  O  O75  1  0.35060000  0.25880000  0.83190000  1.0
  O  O76  1  0.51300000  0.74660000  0.95390000  1.0
  O  O77  1  0.66690000  0.78240000  0.80840000  1.0
