# generated using pymatgen
data_EuCuH8C16N5O8
_symmetry_space_group_name_H-M   'P 1'
_cell_length_a   10.74910000
_cell_length_b   10.75850000
_cell_length_c   11.89010000
_cell_angle_alpha   70.14600000
_cell_angle_beta   78.01600000
_cell_angle_gamma   61.03000000
_symmetry_Int_Tables_number   1
_chemical_formula_structural   EuCuH8C16N5O8
_chemical_formula_sum   'Eu2 Cu2 H16 C32 N10 O16'
_cell_volume   1129.91012678
_cell_formula_units_Z   2
loop_
 _symmetry_equiv_pos_site_id
 _symmetry_equiv_pos_as_xyz
  1  'x, y, z'
loop_
 _atom_site_type_symbol
 _atom_site_label
 _atom_site_symmetry_multiplicity
 _atom_site_fract_x
 _atom_site_fract_y
 _atom_site_fract_z
 _atom_site_occupancy
  Eu  Eu0  1  0.54906000  0.99931000  0.16441000  1.0
  Eu  Eu1  1  0.45094000  0.00069000  0.83559000  1.0
  Cu  Cu2  1  0.00000000  0.00000000  0.00000000  1.0
  Cu  Cu3  1  0.00000000  0.00000000  0.50000000  1.0
  H  H4  1  0.00450000  0.27070000  0.52130000  1.0
  H  H5  1  0.90850000  0.52060000  0.43620000  1.0
  H  H6  1  0.69650000  0.47820000  0.22520000  1.0
  H  H7  1  0.79240000  0.23090000  0.31990000  1.0
  H  H8  1  0.99770000  0.72170000  0.17810000  1.0
  H  H9  1  0.12900000  0.46990000  0.21940000  1.0
  H  H10  1  0.39120000  0.53320000  0.93740000  1.0
  H  H11  1  0.24940000  0.78200000  0.90110000  1.0
  H  H12  1  0.99550000  0.72930000  0.47870000  1.0
  H  H13  1  0.09150000  0.47940000  0.56380000  1.0
  H  H14  1  0.30350000  0.52180000  0.77480000  1.0
  H  H15  1  0.20760000  0.76910000  0.68010000  1.0
  H  H16  1  0.00230000  0.27830000  0.82190000  1.0
  H  H17  1  0.87100000  0.53010000  0.78060000  1.0
  H  H18  1  0.60880000  0.46680000  0.06260000  1.0
  H  H19  1  0.75060000  0.21800000  0.09890000  1.0
  C  C20  1  0.17790000  0.97750000  0.28320000  1.0
  C  C21  1  0.17300000  0.98840000  0.16550000  1.0
  C  C22  1  0.28230000  0.96550000  0.35930000  1.0
  C  C23  1  0.26500000  0.00190000  0.05470000  1.0
  C  C24  1  0.94110000  0.31320000  0.46100000  1.0
  C  C25  1  0.88420000  0.46350000  0.40990000  1.0
  C  C26  1  0.79120000  0.52940000  0.31990000  1.0
  C  C27  1  0.75850000  0.43870000  0.28610000  1.0
  C  C28  1  0.81770000  0.29000000  0.34250000  1.0
  C  C29  1  0.72420000  0.69290000  0.25920000  1.0
  C  C30  1  0.07740000  0.68270000  0.12870000  1.0
  C  C31  1  0.15620000  0.53140000  0.15460000  1.0
  C  C32  1  0.27700000  0.47160000  0.08270000  1.0
  C  C33  1  0.31090000  0.56880000  0.98730000  1.0
  C  C34  1  0.22590000  0.71800000  0.96640000  1.0
  C  C35  1  0.36950000  0.30700000  0.10870000  1.0
  C  C36  1  0.82210000  0.02250000  0.71680000  1.0
  C  C37  1  0.82700000  0.01160000  0.83450000  1.0
  C  C38  1  0.71770000  0.03450000  0.64070000  1.0
  C  C39  1  0.73500000  0.99810000  0.94530000  1.0
  C  C40  1  0.05890000  0.68680000  0.53900000  1.0
  C  C41  1  0.11580000  0.53650000  0.59010000  1.0
  C  C42  1  0.20880000  0.47060000  0.68010000  1.0
  C  C43  1  0.24150000  0.56130000  0.71390000  1.0
  C  C44  1  0.18230000  0.71000000  0.65750000  1.0
  C  C45  1  0.27580000  0.30710000  0.74080000  1.0
  C  C46  1  0.92260000  0.31730000  0.87130000  1.0
  C  C47  1  0.84380000  0.46860000  0.84540000  1.0
  C  C48  1  0.72300000  0.52840000  0.91730000  1.0
  C  C49  1  0.68910000  0.43120000  0.01270000  1.0
  C  C50  1  0.77410000  0.28200000  0.03360000  1.0
  C  C51  1  0.63050000  0.69300000  0.89130000  1.0
  N  N52  1  0.05550000  0.97600000  0.33750000  1.0
  N  N53  1  0.97750000  0.98200000  0.26110000  1.0
  N  N54  1  0.04920000  0.98920000  0.15560000  1.0
  N  N55  1  0.90940000  0.22610000  0.42790000  1.0
  N  N56  1  0.11040000  0.77530000  0.03620000  1.0
  N  N57  1  0.94450000  0.02400000  0.66250000  1.0
  N  N58  1  0.02250000  0.01800000  0.73890000  1.0
  N  N59  1  0.95080000  0.01080000  0.84440000  1.0
  N  N60  1  0.09060000  0.77390000  0.57210000  1.0
  N  N61  1  0.88960000  0.22470000  0.96380000  1.0
  O  O62  1  0.23290000  0.99150000  0.45810000  1.0
  O  O63  1  0.41060000  0.92430000  0.32050000  1.0
  O  O64  1  0.38110000  0.00210000  0.05710000  1.0
  O  O65  1  0.22330000  0.01290000  0.95890000  1.0
  O  O66  1  0.73850000  0.77970000  0.29850000  1.0
  O  O67  1  0.65200000  0.73940000  0.17000000  1.0
  O  O68  1  0.48480000  0.25910000  0.04830000  1.0
  O  O69  1  0.33130000  0.22190000  0.19230000  1.0
  O  O70  1  0.76710000  0.00850000  0.54190000  1.0
  O  O71  1  0.58940000  0.07570000  0.67950000  1.0
  O  O72  1  0.61890000  0.99790000  0.94290000  1.0
  O  O73  1  0.77670000  0.98710000  0.04110000  1.0
  O  O74  1  0.26150000  0.22030000  0.70150000  1.0
  O  O75  1  0.34800000  0.26060000  0.83000000  1.0
  O  O76  1  0.51520000  0.74090000  0.95170000  1.0
  O  O77  1  0.66870000  0.77810000  0.80770000  1.0
