# generated using pymatgen
data_DyCuH8C16N5O8
_symmetry_space_group_name_H-M   'P 1'
_cell_length_a   10.67610000
_cell_length_b   10.73560000
_cell_length_c   11.96370000
_cell_angle_alpha   69.99100000
_cell_angle_beta   77.56200000
_cell_angle_gamma   60.84120000
_symmetry_Int_Tables_number   1
_chemical_formula_structural   DyCuH8C16N5O8
_chemical_formula_sum   'Dy2 Cu2 H16 C32 N10 O16'
_cell_volume   1123.18189853
_cell_formula_units_Z   2
loop_
 _symmetry_equiv_pos_site_id
 _symmetry_equiv_pos_as_xyz
  1  'x, y, z'
loop_
 _atom_site_type_symbol
 _atom_site_label
 _atom_site_symmetry_multiplicity
 _atom_site_fract_x
 _atom_site_fract_y
 _atom_site_fract_z
 _atom_site_occupancy
  Dy  Dy0  1  0.54863000  0.99837000  0.16145000  1.0
  Dy  Dy1  1  0.45137000  0.00163000  0.83855000  1.0
  Cu  Cu2  1  0.00000000  0.00000000  0.00000000  1.0
  Cu  Cu3  1  0.00000000  0.00000000  0.50000000  1.0
  H  H4  1  0.01060000  0.27220000  0.51470000  1.0
  H  H5  1  0.91130000  0.52130000  0.43010000  1.0
  H  H6  1  0.69260000  0.47970000  0.22700000  1.0
  H  H7  1  0.79190000  0.23280000  0.32090000  1.0
  H  H8  1  0.99950000  0.71830000  0.18480000  1.0
  H  H9  1  0.13280000  0.46520000  0.21970000  1.0
  H  H10  1  0.39480000  0.53140000  0.93500000  1.0
  H  H11  1  0.25570000  0.78160000  0.90560000  1.0
  H  H12  1  0.98940000  0.72780000  0.48530000  1.0
  H  H13  1  0.08870000  0.47870000  0.56990000  1.0
  H  H14  1  0.30740000  0.52030000  0.77300000  1.0
  H  H15  1  0.20810000  0.76720000  0.67910000  1.0
  H  H16  1  0.00050000  0.28170000  0.81520000  1.0
  H  H17  1  0.86720000  0.53480000  0.78030000  1.0
  H  H18  1  0.60520000  0.46860000  0.06500000  1.0
  H  H19  1  0.74430000  0.21840000  0.09440000  1.0
  C  C20  1  0.17780000  0.97870000  0.28320000  1.0
  C  C21  1  0.17160000  0.98810000  0.16390000  1.0
  C  C22  1  0.28260000  0.96530000  0.35680000  1.0
  C  C23  1  0.26560000  0.00440000  0.05620000  1.0
  C  C24  1  0.94420000  0.31420000  0.45720000  1.0
  C  C25  1  0.88560000  0.46400000  0.40550000  1.0
  C  C26  1  0.78820000  0.53300000  0.31670000  1.0
  C  C27  1  0.75600000  0.44100000  0.28600000  1.0
  C  C28  1  0.81700000  0.29200000  0.34330000  1.0
  C  C29  1  0.72330000  0.69570000  0.25410000  1.0
  C  C30  1  0.07770000  0.67950000  0.13340000  1.0
  C  C31  1  0.15800000  0.52860000  0.15490000  1.0
  C  C32  1  0.27600000  0.47120000  0.08020000  1.0
  C  C33  1  0.31410000  0.56740000  0.98530000  1.0
  C  C34  1  0.22990000  0.71640000  0.96810000  1.0
  C  C35  1  0.37140000  0.30350000  0.10820000  1.0
  C  C36  1  0.82220000  0.02130000  0.71680000  1.0
  C  C37  1  0.82840000  0.01190000  0.83610000  1.0
  C  C38  1  0.71740000  0.03470000  0.64320000  1.0
  C  C39  1  0.73440000  0.99560000  0.94380000  1.0
  C  C40  1  0.05580000  0.68580000  0.54280000  1.0
  C  C41  1  0.11440000  0.53600000  0.59450000  1.0
  C  C42  1  0.21180000  0.46700000  0.68330000  1.0
  C  C43  1  0.24400000  0.55900000  0.71400000  1.0
  C  C44  1  0.18300000  0.70800000  0.65670000  1.0
  C  C45  1  0.27670000  0.30430000  0.74590000  1.0
  C  C46  1  0.92230000  0.32050000  0.86660000  1.0
  C  C47  1  0.84200000  0.47140000  0.84510000  1.0
  C  C48  1  0.72400000  0.52880000  0.91980000  1.0
  C  C49  1  0.68590000  0.43260000  0.01470000  1.0
  C  C50  1  0.77010000  0.28360000  0.03190000  1.0
  C  C51  1  0.62860000  0.69650000  0.89180000  1.0
  N  N52  1  0.05940000  0.97830000  0.33720000  1.0
  N  N53  1  0.97910000  0.97860000  0.25980000  1.0
  N  N54  1  0.04710000  0.99180000  0.15530000  1.0
  N  N55  1  0.90930000  0.22670000  0.42810000  1.0
  N  N56  1  0.11230000  0.77260000  0.03700000  1.0
  N  N57  1  0.94060000  0.02170000  0.66280000  1.0
  N  N58  1  0.02090000  0.02140000  0.74020000  1.0
  N  N59  1  0.95290000  0.00820000  0.84470000  1.0
  N  N60  1  0.09070000  0.77330000  0.57190000  1.0
  N  N61  1  0.88770000  0.22740000  0.96300000  1.0
  O  O62  1  0.23560000  0.99290000  0.45580000  1.0
  O  O63  1  0.41410000  0.92560000  0.31490000  1.0
  O  O64  1  0.38260000  0.00650000  0.05500000  1.0
  O  O65  1  0.22140000  0.01450000  0.95810000  1.0
  O  O66  1  0.73720000  0.78210000  0.29370000  1.0
  O  O67  1  0.64540000  0.74180000  0.17100000  1.0
  O  O68  1  0.48750000  0.25170000  0.04460000  1.0
  O  O69  1  0.33350000  0.21830000  0.19210000  1.0
  O  O70  1  0.76440000  0.00710000  0.54420000  1.0
  O  O71  1  0.58590000  0.07440000  0.68510000  1.0
  O  O72  1  0.61740000  0.99350000  0.94500000  1.0
  O  O73  1  0.77860000  0.98550000  0.04190000  1.0
  O  O74  1  0.26280000  0.21790000  0.70630000  1.0
  O  O75  1  0.35460000  0.25820000  0.82900000  1.0
  O  O76  1  0.51250000  0.74830000  0.95540000  1.0
  O  O77  1  0.66650000  0.78170000  0.80790000  1.0
