# generated using pymatgen
data_Er3P2H4C11O30
_symmetry_space_group_name_H-M   'P 1'
_cell_length_a   8.51460000
_cell_length_b   16.20490000
_cell_length_c   28.54700000
_cell_angle_alpha   90.00000000
_cell_angle_beta   96.21200000
_cell_angle_gamma   90.00000000
_symmetry_Int_Tables_number   1
_chemical_formula_structural   Er3P2H4C11O30
_chemical_formula_sum   'Er12 P8 H16 C44 O120'
_cell_volume   3915.73711839
_cell_formula_units_Z   4
loop_
 _symmetry_equiv_pos_site_id
 _symmetry_equiv_pos_as_xyz
  1  'x, y, z'
loop_
 _atom_site_type_symbol
 _atom_site_label
 _atom_site_symmetry_multiplicity
 _atom_site_fract_x
 _atom_site_fract_y
 _atom_site_fract_z
 _atom_site_occupancy
  Er  Er0  1  0.82105000  0.28764000  0.33210000  1.0
  Er  Er1  1  0.19001000  0.17334000  0.17127000  1.0
  Er  Er2  1  0.45121000  0.19153000  0.49608000  1.0
  Er  Er3  1  0.17895000  0.78764000  0.16790000  1.0
  Er  Er4  1  0.80999000  0.67334000  0.32873000  1.0
  Er  Er5  1  0.54879000  0.69153000  0.00392000  1.0
  Er  Er6  1  0.17895000  0.71236000  0.66790000  1.0
  Er  Er7  1  0.80999000  0.82666000  0.82873000  1.0
  Er  Er8  1  0.54879000  0.80847000  0.50392000  1.0
  Er  Er9  1  0.82105000  0.21236000  0.83210000  1.0
  Er  Er10  1  0.19001000  0.32666000  0.67127000  1.0
  Er  Er11  1  0.45121000  0.30847000  0.99608000  1.0
  P  P12  1  0.08046000  0.26870000  0.43704000  1.0
  P  P13  1  0.56657000  0.25143000  0.22542000  1.0
  P  P14  1  0.91954000  0.76870000  0.06296000  1.0
  P  P15  1  0.43343000  0.75143000  0.27458000  1.0
  P  P16  1  0.91954000  0.73130000  0.56296000  1.0
  P  P17  1  0.43343000  0.74857000  0.77458000  1.0
  P  P18  1  0.08046000  0.23130000  0.93704000  1.0
  P  P19  1  0.56657000  0.24857000  0.72542000  1.0
  H  H20  1  0.93380000  0.27350000  0.49790000  1.0
  H  H21  1  0.10430000  0.40080000  0.41830000  1.0
  H  H22  1  0.67040000  0.23320000  0.16840000  1.0
  H  H23  1  0.41330000  0.33820000  0.19250000  1.0
  H  H24  1  0.06620000  0.77350000  0.00210000  1.0
  H  H25  1  0.89570000  0.90080000  0.08170000  1.0
  H  H26  1  0.32960000  0.73320000  0.33160000  1.0
  H  H27  1  0.58670000  0.83820000  0.30750000  1.0
  H  H28  1  0.06620000  0.72650000  0.50210000  1.0
  H  H29  1  0.89570000  0.59920000  0.58170000  1.0
  H  H30  1  0.32960000  0.76680000  0.83160000  1.0
  H  H31  1  0.58670000  0.66180000  0.80750000  1.0
  H  H32  1  0.93380000  0.22650000  0.99790000  1.0
  H  H33  1  0.10430000  0.09920000  0.91830000  1.0
  H  H34  1  0.67040000  0.26680000  0.66840000  1.0
  H  H35  1  0.41330000  0.16180000  0.69250000  1.0
  C  C36  1  0.03420000  0.27360000  0.24899000  1.0
  C  C37  1  0.00270000  0.18310000  0.26160000  1.0
  C  C38  1  0.63320000  0.19070000  0.40430000  1.0
  C  C39  1  0.60460000  0.28200000  0.41467000  1.0
  C  C40  1  0.74810000  0.48030000  0.31610000  1.0
  C  C41  1  0.89710000  0.48280000  0.34990000  1.0
  C  C42  1  0.33260000  0.19940000  0.07550000  1.0
  C  C43  1  0.31570000  0.28800000  0.09308000  1.0
  C  C44  1  0.91190000  0.22540000  0.08770000  1.0
  C  C45  1  0.73320000  0.24620000  0.07630000  1.0
  C  C46  1  0.57920000  0.00730000  0.51475000  1.0
  C  C47  1  0.96580000  0.77360000  0.25101000  1.0
  C  C48  1  0.99730000  0.68310000  0.23840000  1.0
  C  C49  1  0.36680000  0.69070000  0.09570000  1.0
  C  C50  1  0.39540000  0.78200000  0.08533000  1.0
  C  C51  1  0.25190000  0.98030000  0.18390000  1.0
  C  C52  1  0.10290000  0.98280000  0.15010000  1.0
  C  C53  1  0.66740000  0.69940000  0.42450000  1.0
  C  C54  1  0.68430000  0.78800000  0.40692000  1.0
  C  C55  1  0.08810000  0.72540000  0.41230000  1.0
  C  C56  1  0.26680000  0.74620000  0.42370000  1.0
  C  C57  1  0.42080000  0.50730000  0.98525000  1.0
  C  C58  1  0.96580000  0.72640000  0.75101000  1.0
  C  C59  1  0.99730000  0.81690000  0.73840000  1.0
  C  C60  1  0.36680000  0.80930000  0.59570000  1.0
  C  C61  1  0.39540000  0.71800000  0.58533000  1.0
  C  C62  1  0.25190000  0.51970000  0.68390000  1.0
  C  C63  1  0.10290000  0.51720000  0.65010000  1.0
  C  C64  1  0.66740000  0.80060000  0.92450000  1.0
  C  C65  1  0.68430000  0.71200000  0.90692000  1.0
  C  C66  1  0.08810000  0.77460000  0.91230000  1.0
  C  C67  1  0.26680000  0.75380000  0.92370000  1.0
  C  C68  1  0.42080000  0.99270000  0.48525000  1.0
  C  C69  1  0.03420000  0.22640000  0.74899000  1.0
  C  C70  1  0.00270000  0.31690000  0.76160000  1.0
  C  C71  1  0.63320000  0.30930000  0.90430000  1.0
  C  C72  1  0.60460000  0.21800000  0.91467000  1.0
  C  C73  1  0.74810000  0.01970000  0.81610000  1.0
  C  C74  1  0.89710000  0.01720000  0.84990000  1.0
  C  C75  1  0.33260000  0.30060000  0.57550000  1.0
  C  C76  1  0.31570000  0.21200000  0.59308000  1.0
  C  C77  1  0.91190000  0.27460000  0.58770000  1.0
  C  C78  1  0.73320000  0.25380000  0.57630000  1.0
  C  C79  1  0.57920000  0.49270000  0.01475000  1.0
  O  O80  1  0.93190000  0.26130000  0.46420000  1.0
  O  O81  1  0.13790000  0.36170000  0.44180000  1.0
  O  O82  1  0.21170000  0.21470000  0.45876000  1.0
  O  O83  1  0.02640000  0.25020000  0.38637000  1.0
  O  O84  1  0.11910000  0.28660000  0.21684000  1.0
  O  O85  1  0.05960000  0.12860000  0.23651000  1.0
  O  O86  1  0.97300000  0.32800000  0.27293000  1.0
  O  O87  1  0.92640000  0.17000000  0.29583000  1.0
  O  O88  1  0.57830000  0.13830000  0.43204000  1.0
  O  O89  1  0.52020000  0.29840000  0.44675000  1.0
  O  O90  1  0.70590000  0.17380000  0.37027000  1.0
  O  O91  1  0.66830000  0.33250000  0.39001000  1.0
  O  O92  1  0.95390000  0.41410000  0.36399000  1.0
  O  O93  1  0.69630000  0.41150000  0.30136000  1.0
  O  O94  1  0.95390000  0.55300000  0.36119000  1.0
  O  O95  1  0.68420000  0.54830000  0.30417000  1.0
  O  O96  1  0.42530000  0.19790000  0.21318000  1.0
  O  O97  1  0.62050000  0.25470000  0.27651000  1.0
  O  O98  1  0.71170000  0.22480000  0.19963000  1.0
  O  O99  1  0.52230000  0.34210000  0.20731000  1.0
  O  O100  1  0.37570000  0.19050000  0.03549000  1.0
  O  O101  1  0.34150000  0.34520000  0.06522000  1.0
  O  O102  1  0.30730000  0.14230000  0.10391000  1.0
  O  O103  1  0.27760000  0.29660000  0.13407000  1.0
  O  O104  1  0.64940000  0.24910000  0.10901000  1.0
  O  O105  1  0.95890000  0.21710000  0.13072000  1.0
  O  O106  1  0.68680000  0.25990000  0.03360000  1.0
  O  O107  1  0.99390000  0.22120000  0.05475000  1.0
  O  O108  1  0.61440000  0.07740000  0.52869000  1.0
  O  O109  1  0.66320000  0.94310000  0.52280000  1.0
  O  O110  1  0.06810000  0.76130000  0.03580000  1.0
  O  O111  1  0.86210000  0.86170000  0.05820000  1.0
  O  O112  1  0.78830000  0.71470000  0.04124000  1.0
  O  O113  1  0.97360000  0.75020000  0.11363000  1.0
  O  O114  1  0.88090000  0.78660000  0.28316000  1.0
  O  O115  1  0.94040000  0.62860000  0.26349000  1.0
  O  O116  1  0.02700000  0.82800000  0.22707000  1.0
  O  O117  1  0.07360000  0.67000000  0.20417000  1.0
  O  O118  1  0.42170000  0.63830000  0.06796000  1.0
  O  O119  1  0.47980000  0.79840000  0.05325000  1.0
  O  O120  1  0.29410000  0.67380000  0.12973000  1.0
  O  O121  1  0.33170000  0.83250000  0.10999000  1.0
  O  O122  1  0.04610000  0.91410000  0.13601000  1.0
  O  O123  1  0.30370000  0.91150000  0.19864000  1.0
  O  O124  1  0.04610000  0.05300000  0.13881000  1.0
  O  O125  1  0.31580000  0.04830000  0.19583000  1.0
  O  O126  1  0.57470000  0.69790000  0.28682000  1.0
  O  O127  1  0.37950000  0.75470000  0.22349000  1.0
  O  O128  1  0.28830000  0.72480000  0.30037000  1.0
  O  O129  1  0.47770000  0.84210000  0.29269000  1.0
  O  O130  1  0.62430000  0.69050000  0.46451000  1.0
  O  O131  1  0.65850000  0.84520000  0.43478000  1.0
  O  O132  1  0.69270000  0.64230000  0.39609000  1.0
  O  O133  1  0.72240000  0.79660000  0.36593000  1.0
  O  O134  1  0.35060000  0.74910000  0.39099000  1.0
  O  O135  1  0.04110000  0.71710000  0.36928000  1.0
  O  O136  1  0.31320000  0.75990000  0.46640000  1.0
  O  O137  1  0.00610000  0.72120000  0.44525000  1.0
  O  O138  1  0.38560000  0.57740000  0.97131000  1.0
  O  O139  1  0.33680000  0.44310000  0.97720000  1.0
  O  O140  1  0.06810000  0.73870000  0.53580000  1.0
  O  O141  1  0.86210000  0.63830000  0.55820000  1.0
  O  O142  1  0.78830000  0.78530000  0.54124000  1.0
  O  O143  1  0.97360000  0.74980000  0.61363000  1.0
  O  O144  1  0.88090000  0.71340000  0.78316000  1.0
  O  O145  1  0.94040000  0.87140000  0.76349000  1.0
  O  O146  1  0.02700000  0.67200000  0.72707000  1.0
  O  O147  1  0.07360000  0.83000000  0.70417000  1.0
  O  O148  1  0.42170000  0.86170000  0.56796000  1.0
  O  O149  1  0.47980000  0.70160000  0.55325000  1.0
  O  O150  1  0.29410000  0.82620000  0.62973000  1.0
  O  O151  1  0.33170000  0.66750000  0.60999000  1.0
  O  O152  1  0.04610000  0.58590000  0.63601000  1.0
  O  O153  1  0.30370000  0.58850000  0.69864000  1.0
  O  O154  1  0.04610000  0.44700000  0.63881000  1.0
  O  O155  1  0.31580000  0.45170000  0.69583000  1.0
  O  O156  1  0.57470000  0.80210000  0.78682000  1.0
  O  O157  1  0.37950000  0.74530000  0.72349000  1.0
  O  O158  1  0.28830000  0.77520000  0.80037000  1.0
  O  O159  1  0.47770000  0.65790000  0.79269000  1.0
  O  O160  1  0.62430000  0.80950000  0.96451000  1.0
  O  O161  1  0.65850000  0.65480000  0.93478000  1.0
  O  O162  1  0.69270000  0.85770000  0.89609000  1.0
  O  O163  1  0.72240000  0.70340000  0.86593000  1.0
  O  O164  1  0.35060000  0.75090000  0.89099000  1.0
  O  O165  1  0.04110000  0.78290000  0.86928000  1.0
  O  O166  1  0.31320000  0.74010000  0.96640000  1.0
  O  O167  1  0.00610000  0.77880000  0.94525000  1.0
  O  O168  1  0.38560000  0.92260000  0.47131000  1.0
  O  O169  1  0.33680000  0.05690000  0.47720000  1.0
  O  O170  1  0.93190000  0.23870000  0.96420000  1.0
  O  O171  1  0.13790000  0.13830000  0.94180000  1.0
  O  O172  1  0.21170000  0.28530000  0.95876000  1.0
  O  O173  1  0.02640000  0.24980000  0.88637000  1.0
  O  O174  1  0.11910000  0.21340000  0.71684000  1.0
  O  O175  1  0.05960000  0.37140000  0.73651000  1.0
  O  O176  1  0.97300000  0.17200000  0.77293000  1.0
  O  O177  1  0.92640000  0.33000000  0.79583000  1.0
  O  O178  1  0.57830000  0.36170000  0.93204000  1.0
  O  O179  1  0.52020000  0.20160000  0.94675000  1.0
  O  O180  1  0.70590000  0.32620000  0.87027000  1.0
  O  O181  1  0.66830000  0.16750000  0.89001000  1.0
  O  O182  1  0.95390000  0.08590000  0.86399000  1.0
  O  O183  1  0.69630000  0.08850000  0.80136000  1.0
  O  O184  1  0.95390000  0.94700000  0.86119000  1.0
  O  O185  1  0.68420000  0.95170000  0.80417000  1.0
  O  O186  1  0.42530000  0.30210000  0.71318000  1.0
  O  O187  1  0.62050000  0.24530000  0.77651000  1.0
  O  O188  1  0.71170000  0.27520000  0.69963000  1.0
  O  O189  1  0.52230000  0.15790000  0.70731000  1.0
  O  O190  1  0.37570000  0.30950000  0.53549000  1.0
  O  O191  1  0.34150000  0.15480000  0.56522000  1.0
  O  O192  1  0.30730000  0.35770000  0.60391000  1.0
  O  O193  1  0.27760000  0.20340000  0.63407000  1.0
  O  O194  1  0.64940000  0.25090000  0.60901000  1.0
  O  O195  1  0.95890000  0.28290000  0.63072000  1.0
  O  O196  1  0.68680000  0.24010000  0.53360000  1.0
  O  O197  1  0.99390000  0.27880000  0.55475000  1.0
  O  O198  1  0.61440000  0.42260000  0.02869000  1.0
  O  O199  1  0.66320000  0.55690000  0.02280000  1.0
