# generated using pymatgen
data_Zn2H4C9O7
_symmetry_space_group_name_H-M   'P 1'
_cell_length_a   9.11900000
_cell_length_b   14.47110000
_cell_length_c   14.73550000
_cell_angle_alpha   90.00000000
_cell_angle_beta   90.00000000
_cell_angle_gamma   107.75200000
_symmetry_Int_Tables_number   1
_chemical_formula_structural   Zn2H4C9O7
_chemical_formula_sum   'Zn8 H16 C36 O28'
_cell_volume   1851.93720021
_cell_formula_units_Z   4
loop_
 _symmetry_equiv_pos_site_id
 _symmetry_equiv_pos_as_xyz
  1  'x, y, z'
loop_
 _atom_site_type_symbol
 _atom_site_label
 _atom_site_symmetry_multiplicity
 _atom_site_fract_x
 _atom_site_fract_y
 _atom_site_fract_z
 _atom_site_occupancy
  Zn  Zn0  1  0.27724000  0.36437000  0.34906000  1.0
  Zn  Zn1  1  0.18311000  0.13419000  0.25261000  1.0
  Zn  Zn2  1  0.22276000  0.13563000  0.84906000  1.0
  Zn  Zn3  1  0.31689000  0.36581000  0.75261000  1.0
  Zn  Zn4  1  0.72276000  0.63563000  0.65094000  1.0
  Zn  Zn5  1  0.81689000  0.86581000  0.74739000  1.0
  Zn  Zn6  1  0.77724000  0.86437000  0.15094000  1.0
  Zn  Zn7  1  0.68311000  0.63419000  0.24739000  1.0
  H  H8  1  0.85810000  0.39450000  0.29800000  1.0
  H  H9  1  0.70130000  0.10240000  0.27790000  1.0
  H  H10  1  0.45050000  0.10670000  0.28610000  1.0
  H  H11  1  0.26110000  0.41070000  0.55330000  1.0
  H  H12  1  0.64190000  0.10550000  0.79800000  1.0
  H  H13  1  0.79870000  0.39760000  0.77790000  1.0
  H  H14  1  0.04950000  0.39330000  0.78610000  1.0
  H  H15  1  0.23890000  0.08930000  0.05330000  1.0
  H  H16  1  0.14190000  0.60550000  0.70200000  1.0
  H  H17  1  0.29870000  0.89760000  0.72210000  1.0
  H  H18  1  0.54950000  0.89330000  0.71390000  1.0
  H  H19  1  0.73890000  0.58930000  0.44670000  1.0
  H  H20  1  0.35810000  0.89450000  0.20200000  1.0
  H  H21  1  0.20130000  0.60240000  0.22210000  1.0
  H  H22  1  0.95050000  0.60670000  0.21390000  1.0
  H  H23  1  0.76110000  0.91070000  0.94670000  1.0
  C  C24  1  0.49780000  0.25460000  0.29540000  1.0
  C  C25  1  0.62430000  0.34160000  0.29850000  1.0
  C  C26  1  0.77460000  0.33610000  0.29520000  1.0
  C  C27  1  0.80600000  0.24840000  0.28790000  1.0
  C  C28  1  0.68220000  0.16300000  0.28370000  1.0
  C  C29  1  0.53250000  0.16580000  0.28800000  1.0
  C  C30  1  0.60630000  0.44130000  0.30120000  1.0
  C  C31  1  0.96750000  0.24490000  0.28440000  1.0
  C  C32  1  0.27820000  0.34930000  0.54990000  1.0
  C  C33  1  0.00220000  0.24540000  0.79540000  1.0
  C  C34  1  0.87570000  0.15840000  0.79850000  1.0
  C  C35  1  0.72540000  0.16390000  0.79520000  1.0
  C  C36  1  0.69400000  0.25160000  0.78790000  1.0
  C  C37  1  0.81780000  0.33700000  0.78370000  1.0
  C  C38  1  0.96750000  0.33420000  0.78800000  1.0
  C  C39  1  0.89370000  0.05870000  0.80120000  1.0
  C  C40  1  0.53250000  0.25510000  0.78440000  1.0
  C  C41  1  0.22180000  0.15070000  0.04990000  1.0
  C  C42  1  0.50220000  0.74540000  0.70460000  1.0
  C  C43  1  0.37570000  0.65840000  0.70150000  1.0
  C  C44  1  0.22540000  0.66390000  0.70480000  1.0
  C  C45  1  0.19400000  0.75160000  0.71210000  1.0
  C  C46  1  0.31780000  0.83700000  0.71630000  1.0
  C  C47  1  0.46750000  0.83420000  0.71200000  1.0
  C  C48  1  0.39370000  0.55870000  0.69880000  1.0
  C  C49  1  0.03250000  0.75510000  0.71560000  1.0
  C  C50  1  0.72180000  0.65070000  0.45010000  1.0
  C  C51  1  0.99780000  0.75460000  0.20460000  1.0
  C  C52  1  0.12430000  0.84160000  0.20150000  1.0
  C  C53  1  0.27460000  0.83610000  0.20480000  1.0
  C  C54  1  0.30600000  0.74840000  0.21210000  1.0
  C  C55  1  0.18220000  0.66300000  0.21630000  1.0
  C  C56  1  0.03250000  0.66580000  0.21200000  1.0
  C  C57  1  0.10630000  0.94130000  0.19880000  1.0
  C  C58  1  0.46750000  0.74490000  0.21560000  1.0
  C  C59  1  0.77820000  0.84930000  0.95010000  1.0
  O  O60  1  0.35180000  0.25264000  0.29676000  1.0
  O  O61  1  0.47610000  0.45465000  0.30958000  1.0
  O  O62  1  0.72620000  0.51226000  0.29350000  1.0
  O  O63  1  0.07430000  0.32437000  0.29090000  1.0
  O  O64  1  0.98750000  0.16245000  0.27600000  1.0
  O  O65  1  0.28040000  0.31260000  0.47300000  1.0
  O  O66  1  0.29710000  0.30960000  0.62200000  1.0
  O  O67  1  0.14820000  0.24736000  0.79676000  1.0
  O  O68  1  0.02390000  0.04535000  0.80958000  1.0
  O  O69  1  0.77380000  0.98774000  0.79350000  1.0
  O  O70  1  0.42570000  0.17563000  0.79090000  1.0
  O  O71  1  0.51250000  0.33755000  0.77600000  1.0
  O  O72  1  0.21960000  0.18740000  0.97300000  1.0
  O  O73  1  0.20290000  0.19040000  0.12200000  1.0
  O  O74  1  0.64820000  0.74736000  0.70324000  1.0
  O  O75  1  0.52390000  0.54535000  0.69042000  1.0
  O  O76  1  0.27380000  0.48774000  0.70650000  1.0
  O  O77  1  0.92570000  0.67563000  0.70910000  1.0
  O  O78  1  0.01250000  0.83755000  0.72400000  1.0
  O  O79  1  0.71960000  0.68740000  0.52700000  1.0
  O  O80  1  0.70290000  0.69040000  0.37800000  1.0
  O  O81  1  0.85180000  0.75264000  0.20324000  1.0
  O  O82  1  0.97610000  0.95465000  0.19042000  1.0
  O  O83  1  0.22620000  0.01226000  0.20650000  1.0
  O  O84  1  0.57430000  0.82437000  0.20910000  1.0
  O  O85  1  0.48750000  0.66245000  0.22400000  1.0
  O  O86  1  0.78040000  0.81260000  0.02700000  1.0
  O  O87  1  0.79710000  0.80960000  0.87800000  1.0
