# generated using pymatgen
data_ZnMo3H12C12N6O7
_symmetry_space_group_name_H-M   'P 1'
_cell_length_a   8.18000000
_cell_length_b   8.89000000
_cell_length_c   29.90000000
_cell_angle_alpha   90.00000000
_cell_angle_beta   90.00000000
_cell_angle_gamma   104.06000000
_symmetry_Int_Tables_number   1
_chemical_formula_structural   ZnMo3H12C12N6O7
_chemical_formula_sum   'Zn4 Mo12 H48 C48 N24 O28'
_cell_volume   2109.19496579
_cell_formula_units_Z   4
loop_
 _symmetry_equiv_pos_site_id
 _symmetry_equiv_pos_as_xyz
  1  'x, y, z'
loop_
 _atom_site_type_symbol
 _atom_site_label
 _atom_site_symmetry_multiplicity
 _atom_site_fract_x
 _atom_site_fract_y
 _atom_site_fract_z
 _atom_site_occupancy
  Zn  Zn0  1  0.94002000  0.49896000  0.90955000  1.0
  Zn  Zn1  1  0.55998000  0.50104000  0.40955000  1.0
  Zn  Zn2  1  0.05998000  0.50104000  0.09045000  1.0
  Zn  Zn3  1  0.44002000  0.49896000  0.59045000  1.0
  Mo  Mo4  1  0.75636000  0.06236000  0.92203000  1.0
  Mo  Mo5  1  0.95460000  0.08681000  0.04392000  1.0
  Mo  Mo6  1  0.55119000  0.82487000  0.99755000  1.0
  Mo  Mo7  1  0.74364000  0.93764000  0.42203000  1.0
  Mo  Mo8  1  0.54540000  0.91319000  0.54392000  1.0
  Mo  Mo9  1  0.94881000  0.17513000  0.49755000  1.0
  Mo  Mo10  1  0.24364000  0.93764000  0.07797000  1.0
  Mo  Mo11  1  0.04540000  0.91319000  0.95608000  1.0
  Mo  Mo12  1  0.44881000  0.17513000  0.00245000  1.0
  Mo  Mo13  1  0.25636000  0.06236000  0.57797000  1.0
  Mo  Mo14  1  0.45460000  0.08681000  0.45608000  1.0
  Mo  Mo15  1  0.05119000  0.82487000  0.50245000  1.0
  H  H16  1  0.87250000  0.42550000  0.80140000  1.0
  H  H17  1  0.78500000  0.66000000  0.64600000  1.0
  H  H18  1  0.74720000  0.74710000  0.87060000  1.0
  H  H19  1  0.50770000  0.72850000  0.77480000  1.0
  H  H20  1  0.57720000  0.85170000  0.81200000  1.0
  H  H21  1  0.84120000  0.06210000  0.79400000  1.0
  H  H22  1  0.97200000  0.23340000  0.73970000  1.0
  H  H23  1  0.72420000  0.95050000  0.64540000  1.0
  H  H24  1  0.59450000  0.77930000  0.69950000  1.0
  H  H25  1  0.05200000  0.27500000  0.65870000  1.0
  H  H26  1  0.94020000  0.16930000  0.62260000  1.0
  H  H27  1  0.63390000  0.23660000  0.61170000  1.0
  H  H28  1  0.62750000  0.57450000  0.30140000  1.0
  H  H29  1  0.71500000  0.34000000  0.14600000  1.0
  H  H30  1  0.75280000  0.25290000  0.37060000  1.0
  H  H31  1  0.99230000  0.27150000  0.27480000  1.0
  H  H32  1  0.92280000  0.14830000  0.31200000  1.0
  H  H33  1  0.65880000  0.93790000  0.29400000  1.0
  H  H34  1  0.52800000  0.76660000  0.23970000  1.0
  H  H35  1  0.77580000  0.04950000  0.14540000  1.0
  H  H36  1  0.90550000  0.22070000  0.19950000  1.0
  H  H37  1  0.44800000  0.72500000  0.15870000  1.0
  H  H38  1  0.55980000  0.83070000  0.12260000  1.0
  H  H39  1  0.86610000  0.76340000  0.11170000  1.0
  H  H40  1  0.12750000  0.57450000  0.19860000  1.0
  H  H41  1  0.21500000  0.34000000  0.35400000  1.0
  H  H42  1  0.25280000  0.25290000  0.12940000  1.0
  H  H43  1  0.49230000  0.27150000  0.22520000  1.0
  H  H44  1  0.42280000  0.14830000  0.18800000  1.0
  H  H45  1  0.15880000  0.93790000  0.20600000  1.0
  H  H46  1  0.02800000  0.76660000  0.26030000  1.0
  H  H47  1  0.27580000  0.04950000  0.35460000  1.0
  H  H48  1  0.40550000  0.22070000  0.30050000  1.0
  H  H49  1  0.94800000  0.72500000  0.34130000  1.0
  H  H50  1  0.05980000  0.83070000  0.37740000  1.0
  H  H51  1  0.36610000  0.76340000  0.38830000  1.0
  H  H52  1  0.37250000  0.42550000  0.69860000  1.0
  H  H53  1  0.28500000  0.66000000  0.85400000  1.0
  H  H54  1  0.24720000  0.74710000  0.62940000  1.0
  H  H55  1  0.00770000  0.72850000  0.72520000  1.0
  H  H56  1  0.07720000  0.85170000  0.68800000  1.0
  H  H57  1  0.34120000  0.06210000  0.70600000  1.0
  H  H58  1  0.47200000  0.23340000  0.76030000  1.0
  H  H59  1  0.22420000  0.95050000  0.85460000  1.0
  H  H60  1  0.09450000  0.77930000  0.80050000  1.0
  H  H61  1  0.55200000  0.27500000  0.84130000  1.0
  H  H62  1  0.44020000  0.16930000  0.87740000  1.0
  H  H63  1  0.13390000  0.23660000  0.88830000  1.0
  C  C64  1  0.82940000  0.50960000  0.80920000  1.0
  C  C65  1  0.77810000  0.55470000  0.64240000  1.0
  C  C66  1  0.76330000  0.68280000  0.84730000  1.0
  C  C67  1  0.60970000  0.79250000  0.78780000  1.0
  C  C68  1  0.70250000  0.90260000  0.75280000  1.0
  C  C69  1  0.81670000  0.03910000  0.76410000  1.0
  C  C70  1  0.89510000  0.14240000  0.73140000  1.0
  C  C71  1  0.85990000  0.11120000  0.68630000  1.0
  C  C72  1  0.74800000  0.97430000  0.67540000  1.0
  C  C73  1  0.66990000  0.87110000  0.70790000  1.0
  C  C74  1  0.93700000  0.22450000  0.65050000  1.0
  C  C75  1  0.69590000  0.32810000  0.62450000  1.0
  C  C76  1  0.67060000  0.49040000  0.30920000  1.0
  C  C77  1  0.72190000  0.44530000  0.14240000  1.0
  C  C78  1  0.73670000  0.31720000  0.34730000  1.0
  C  C79  1  0.89030000  0.20750000  0.28780000  1.0
  C  C80  1  0.79750000  0.09740000  0.25280000  1.0
  C  C81  1  0.68330000  0.96090000  0.26410000  1.0
  C  C82  1  0.60490000  0.85760000  0.23140000  1.0
  C  C83  1  0.64010000  0.88880000  0.18630000  1.0
  C  C84  1  0.75200000  0.02570000  0.17540000  1.0
  C  C85  1  0.83010000  0.12890000  0.20790000  1.0
  C  C86  1  0.56300000  0.77550000  0.15050000  1.0
  C  C87  1  0.80410000  0.67190000  0.12450000  1.0
  C  C88  1  0.17060000  0.49040000  0.19080000  1.0
  C  C89  1  0.22190000  0.44530000  0.35760000  1.0
  C  C90  1  0.23670000  0.31720000  0.15270000  1.0
  C  C91  1  0.39030000  0.20750000  0.21220000  1.0
  C  C92  1  0.29750000  0.09740000  0.24720000  1.0
  C  C93  1  0.18330000  0.96090000  0.23590000  1.0
  C  C94  1  0.10490000  0.85760000  0.26860000  1.0
  C  C95  1  0.14010000  0.88880000  0.31370000  1.0
  C  C96  1  0.25200000  0.02570000  0.32460000  1.0
  C  C97  1  0.33010000  0.12890000  0.29210000  1.0
  C  C98  1  0.06300000  0.77550000  0.34950000  1.0
  C  C99  1  0.30410000  0.67190000  0.37550000  1.0
  C  C100  1  0.32940000  0.50960000  0.69080000  1.0
  C  C101  1  0.27810000  0.55470000  0.85760000  1.0
  C  C102  1  0.26330000  0.68280000  0.65270000  1.0
  C  C103  1  0.10970000  0.79250000  0.71220000  1.0
  C  C104  1  0.20250000  0.90260000  0.74720000  1.0
  C  C105  1  0.31670000  0.03910000  0.73590000  1.0
  C  C106  1  0.39510000  0.14240000  0.76860000  1.0
  C  C107  1  0.35990000  0.11120000  0.81370000  1.0
  C  C108  1  0.24800000  0.97430000  0.82460000  1.0
  C  C109  1  0.16990000  0.87110000  0.79210000  1.0
  C  C110  1  0.43700000  0.22450000  0.84950000  1.0
  C  C111  1  0.19590000  0.32810000  0.87550000  1.0
  N  N112  1  0.84030000  0.56890000  0.85113000  1.0
  N  N113  1  0.71230000  0.69240000  0.80574000  1.0
  N  N114  1  0.64800000  0.45820000  0.62500000  1.0
  N  N115  1  0.84010000  0.34220000  0.64402000  1.0
  N  N116  1  0.75270000  0.58100000  0.78041000  1.0
  N  N117  1  0.89940000  0.48810000  0.65440000  1.0
  N  N118  1  0.65970000  0.43110000  0.35113000  1.0
  N  N119  1  0.78770000  0.30760000  0.30574000  1.0
  N  N120  1  0.85200000  0.54180000  0.12500000  1.0
  N  N121  1  0.65990000  0.65780000  0.14402000  1.0
  N  N122  1  0.74730000  0.41900000  0.28041000  1.0
  N  N123  1  0.60060000  0.51190000  0.15440000  1.0
  N  N124  1  0.15970000  0.43110000  0.14887000  1.0
  N  N125  1  0.28770000  0.30760000  0.19426000  1.0
  N  N126  1  0.35200000  0.54180000  0.37500000  1.0
  N  N127  1  0.15990000  0.65780000  0.35598000  1.0
  N  N128  1  0.24730000  0.41900000  0.21959000  1.0
  N  N129  1  0.10060000  0.51190000  0.34560000  1.0
  N  N130  1  0.34030000  0.56890000  0.64887000  1.0
  N  N131  1  0.21230000  0.69240000  0.69426000  1.0
  N  N132  1  0.14800000  0.45820000  0.87500000  1.0
  N  N133  1  0.34010000  0.34220000  0.85598000  1.0
  N  N134  1  0.25270000  0.58100000  0.71959000  1.0
  N  N135  1  0.39940000  0.48810000  0.84560000  1.0
  O  O136  1  0.96600000  0.12040000  0.98269000  1.0
  O  O137  1  0.74630000  0.98940000  0.04971000  1.0
  O  O138  1  0.74640000  0.84980000  0.96144000  1.0
  O  O139  1  0.81040000  0.25820000  0.90887000  1.0
  O  O140  1  0.59570000  0.06060000  0.96990000  1.0
  O  O141  1  0.96550000  0.26720000  0.06686000  1.0
  O  O142  1  0.95260000  0.00250000  0.90465000  1.0
  O  O143  1  0.53400000  0.87960000  0.48269000  1.0
  O  O144  1  0.75370000  0.01060000  0.54971000  1.0
  O  O145  1  0.75360000  0.15020000  0.46144000  1.0
  O  O146  1  0.68960000  0.74180000  0.40887000  1.0
  O  O147  1  0.90430000  0.93940000  0.46990000  1.0
  O  O148  1  0.53450000  0.73280000  0.56686000  1.0
  O  O149  1  0.54740000  0.99750000  0.40465000  1.0
  O  O150  1  0.03400000  0.87960000  0.01731000  1.0
  O  O151  1  0.25370000  0.01060000  0.95029000  1.0
  O  O152  1  0.25360000  0.15020000  0.03856000  1.0
  O  O153  1  0.18960000  0.74180000  0.09113000  1.0
  O  O154  1  0.40430000  0.93940000  0.03010000  1.0
  O  O155  1  0.03450000  0.73280000  0.93314000  1.0
  O  O156  1  0.04740000  0.99750000  0.09535000  1.0
  O  O157  1  0.46600000  0.12040000  0.51731000  1.0
  O  O158  1  0.24630000  0.98940000  0.45029000  1.0
  O  O159  1  0.24640000  0.84980000  0.53856000  1.0
  O  O160  1  0.31040000  0.25820000  0.59113000  1.0
  O  O161  1  0.09570000  0.06060000  0.53010000  1.0
  O  O162  1  0.46550000  0.26720000  0.43314000  1.0
  O  O163  1  0.45260000  0.00250000  0.59535000  1.0
