# generated using pymatgen
data_Mn3H10(C2O3)4
_symmetry_space_group_name_H-M   'P 1'
_cell_length_a   11.74630000
_cell_length_b   10.95700000
_cell_length_c   15.82170000
_cell_angle_alpha   90.00000000
_cell_angle_beta   91.76000000
_cell_angle_gamma   90.00000000
_symmetry_Int_Tables_number   1
_chemical_formula_structural   Mn3H10(C2O3)4
_chemical_formula_sum   'Mn12 H40 C32 O48'
_cell_volume   2035.35874256
_cell_formula_units_Z   4
loop_
 _symmetry_equiv_pos_site_id
 _symmetry_equiv_pos_as_xyz
  1  'x, y, z'
loop_
 _atom_site_type_symbol
 _atom_site_label
 _atom_site_symmetry_multiplicity
 _atom_site_fract_x
 _atom_site_fract_y
 _atom_site_fract_z
 _atom_site_occupancy
  Mn  Mn0  1  0.25927000  0.04236000  0.13514000  1.0
  Mn  Mn1  1  0.23982000  0.82833000  0.28587000  1.0
  Mn  Mn2  1  0.24073000  0.54236000  0.36486000  1.0
  Mn  Mn3  1  0.26018000  0.32833000  0.21413000  1.0
  Mn  Mn4  1  0.74073000  0.95764000  0.86486000  1.0
  Mn  Mn5  1  0.76018000  0.17167000  0.71413000  1.0
  Mn  Mn6  1  0.75927000  0.45764000  0.63514000  1.0
  Mn  Mn7  1  0.73982000  0.67167000  0.78587000  1.0
  Mn  Mn8  1  0.00000000  0.00000000  0.00000000  1.0
  Mn  Mn9  1  0.50000000  0.50000000  0.50000000  1.0
  Mn  Mn10  1  0.50000000  0.00000000  0.00000000  1.0
  Mn  Mn11  1  0.00000000  0.50000000  0.50000000  1.0
  H  H12  1  0.98120000  0.91330000  0.24280000  1.0
  H  H13  1  0.05340000  0.33130000  0.08700000  1.0
  H  H14  1  0.33370000  0.13390000  0.45460000  1.0
  H  H15  1  0.31780000  0.25200000  0.39590000  1.0
  H  H16  1  0.43770000  0.18260000  0.40090000  1.0
  H  H17  1  0.19810000  0.87730000  0.91800000  1.0
  H  H18  1  0.50080000  0.26030000  0.05200000  1.0
  H  H19  1  0.54230000  0.72090000  0.23260000  1.0
  H  H20  1  0.50650000  0.65540000  0.14530000  1.0
  H  H21  1  0.41590000  0.66860000  0.21830000  1.0
  H  H22  1  0.51880000  0.41330000  0.25720000  1.0
  H  H23  1  0.44660000  0.83130000  0.41300000  1.0
  H  H24  1  0.16630000  0.63390000  0.04540000  1.0
  H  H25  1  0.18220000  0.75200000  0.10410000  1.0
  H  H26  1  0.06230000  0.68260000  0.09910000  1.0
  H  H27  1  0.30190000  0.37730000  0.58200000  1.0
  H  H28  1  0.99920000  0.76030000  0.44800000  1.0
  H  H29  1  0.95770000  0.22090000  0.26740000  1.0
  H  H30  1  0.99350000  0.15540000  0.35470000  1.0
  H  H31  1  0.08410000  0.16860000  0.28170000  1.0
  H  H32  1  0.01880000  0.08670000  0.75720000  1.0
  H  H33  1  0.94660000  0.66870000  0.91300000  1.0
  H  H34  1  0.66630000  0.86610000  0.54540000  1.0
  H  H35  1  0.68220000  0.74800000  0.60410000  1.0
  H  H36  1  0.56230000  0.81740000  0.59910000  1.0
  H  H37  1  0.80190000  0.12270000  0.08200000  1.0
  H  H38  1  0.49920000  0.73970000  0.94800000  1.0
  H  H39  1  0.45770000  0.27910000  0.76740000  1.0
  H  H40  1  0.49350000  0.34460000  0.85470000  1.0
  H  H41  1  0.58410000  0.33140000  0.78170000  1.0
  H  H42  1  0.48120000  0.58670000  0.74280000  1.0
  H  H43  1  0.55340000  0.16870000  0.58700000  1.0
  H  H44  1  0.83370000  0.36610000  0.95460000  1.0
  H  H45  1  0.81780000  0.24800000  0.89590000  1.0
  H  H46  1  0.93770000  0.31740000  0.90090000  1.0
  H  H47  1  0.69810000  0.62270000  0.41800000  1.0
  H  H48  1  0.00080000  0.23970000  0.55200000  1.0
  H  H49  1  0.04230000  0.77910000  0.73260000  1.0
  H  H50  1  0.00650000  0.84460000  0.64530000  1.0
  H  H51  1  0.91590000  0.83140000  0.71830000  1.0
  C  C52  1  0.02220000  0.93850000  0.19500000  1.0
  C  C53  1  0.07530000  0.24840000  0.08090000  1.0
  C  C54  1  0.31790000  0.09420000  0.33030000  1.0
  C  C55  1  0.35480000  0.17220000  0.40130000  1.0
  C  C56  1  0.24190000  0.91920000  0.96030000  1.0
  C  C57  1  0.43720000  0.23830000  0.08430000  1.0
  C  C58  1  0.44250000  0.82800000  0.15490000  1.0
  C  C59  1  0.48000000  0.70790000  0.19090000  1.0
  C  C60  1  0.47780000  0.43850000  0.30500000  1.0
  C  C61  1  0.42470000  0.74840000  0.41910000  1.0
  C  C62  1  0.18210000  0.59420000  0.16970000  1.0
  C  C63  1  0.14520000  0.67220000  0.09870000  1.0
  C  C64  1  0.25810000  0.41920000  0.53970000  1.0
  C  C65  1  0.06280000  0.73830000  0.41570000  1.0
  C  C66  1  0.05750000  0.32800000  0.34510000  1.0
  C  C67  1  0.02000000  0.20790000  0.30910000  1.0
  C  C68  1  0.97780000  0.06150000  0.80500000  1.0
  C  C69  1  0.92470000  0.75160000  0.91910000  1.0
  C  C70  1  0.68210000  0.90580000  0.66970000  1.0
  C  C71  1  0.64520000  0.82780000  0.59870000  1.0
  C  C72  1  0.75810000  0.08080000  0.03970000  1.0
  C  C73  1  0.56280000  0.76170000  0.91570000  1.0
  C  C74  1  0.55750000  0.17200000  0.84510000  1.0
  C  C75  1  0.52000000  0.29210000  0.80910000  1.0
  C  C76  1  0.52220000  0.56150000  0.69500000  1.0
  C  C77  1  0.57530000  0.25160000  0.58090000  1.0
  C  C78  1  0.81790000  0.40580000  0.83030000  1.0
  C  C79  1  0.85480000  0.32780000  0.90130000  1.0
  C  C80  1  0.74190000  0.58080000  0.46030000  1.0
  C  C81  1  0.93720000  0.26170000  0.58430000  1.0
  C  C82  1  0.94250000  0.67200000  0.65490000  1.0
  C  C83  1  0.98000000  0.79210000  0.69090000  1.0
  O  O84  1  0.96620000  0.96700000  0.13223000  1.0
  O  O85  1  0.12985000  0.93916000  0.20287000  1.0
  O  O86  1  0.02130000  0.18890000  0.02853000  1.0
  O  O87  1  0.15740000  0.21211000  0.12804000  1.0
  O  O88  1  0.29994000  0.14129000  0.25711000  1.0
  O  O89  1  0.30880000  0.98500000  0.34640000  1.0
  O  O90  1  0.18748000  0.97180000  0.01742000  1.0
  O  O91  1  0.34520000  0.91680000  0.95398000  1.0
  O  O92  1  0.40348000  0.12947000  0.07790000  1.0
  O  O93  1  0.39630000  0.31900000  0.12803000  1.0
  O  O94  1  0.34983000  0.87520000  0.17851000  1.0
  O  O95  1  0.50430000  0.87230000  0.10151000  1.0
  O  O96  1  0.53380000  0.46700000  0.36777000  1.0
  O  O97  1  0.37015000  0.43916000  0.29713000  1.0
  O  O98  1  0.47870000  0.68890000  0.47147000  1.0
  O  O99  1  0.34260000  0.71211000  0.37196000  1.0
  O  O100  1  0.20006000  0.64129000  0.24289000  1.0
  O  O101  1  0.19120000  0.48500000  0.15360000  1.0
  O  O102  1  0.31252000  0.47180000  0.48258000  1.0
  O  O103  1  0.15480000  0.41680000  0.54602000  1.0
  O  O104  1  0.09652000  0.62947000  0.42210000  1.0
  O  O105  1  0.10370000  0.81900000  0.37197000  1.0
  O  O106  1  0.15017000  0.37520000  0.32149000  1.0
  O  O107  1  0.99570000  0.37230000  0.39849000  1.0
  O  O108  1  0.03380000  0.03300000  0.86777000  1.0
  O  O109  1  0.87015000  0.06084000  0.79713000  1.0
  O  O110  1  0.97870000  0.81110000  0.97147000  1.0
  O  O111  1  0.84260000  0.78789000  0.87196000  1.0
  O  O112  1  0.70006000  0.85871000  0.74289000  1.0
  O  O113  1  0.69120000  0.01500000  0.65360000  1.0
  O  O114  1  0.81252000  0.02820000  0.98258000  1.0
  O  O115  1  0.65480000  0.08320000  0.04602000  1.0
  O  O116  1  0.59652000  0.87053000  0.92210000  1.0
  O  O117  1  0.60370000  0.68100000  0.87197000  1.0
  O  O118  1  0.65017000  0.12480000  0.82149000  1.0
  O  O119  1  0.49570000  0.12770000  0.89849000  1.0
  O  O120  1  0.46620000  0.53300000  0.63223000  1.0
  O  O121  1  0.62985000  0.56084000  0.70287000  1.0
  O  O122  1  0.52130000  0.31110000  0.52853000  1.0
  O  O123  1  0.65740000  0.28789000  0.62804000  1.0
  O  O124  1  0.79994000  0.35871000  0.75711000  1.0
  O  O125  1  0.80880000  0.51500000  0.84640000  1.0
  O  O126  1  0.68748000  0.52820000  0.51742000  1.0
  O  O127  1  0.84520000  0.58320000  0.45398000  1.0
  O  O128  1  0.90348000  0.37053000  0.57790000  1.0
  O  O129  1  0.89630000  0.18100000  0.62803000  1.0
  O  O130  1  0.84983000  0.62480000  0.67851000  1.0
  O  O131  1  0.00430000  0.62770000  0.60151000  1.0
