# generated using pymatgen
data_MnMo5H10C12(N5O6)2
_symmetry_space_group_name_H-M   'P 1'
_cell_length_a   31.11900000
_cell_length_b   11.29840000
_cell_length_c   7.49160000
_cell_angle_alpha   90.00000000
_cell_angle_beta   92.83900000
_cell_angle_gamma   90.00000000
_symmetry_Int_Tables_number   1
_chemical_formula_structural   MnMo5H10C12(N5O6)2
_chemical_formula_sum   'Mn4 Mo20 H40 C48 N40 O48'
_cell_volume   2630.77558762
_cell_formula_units_Z   4
loop_
 _symmetry_equiv_pos_site_id
 _symmetry_equiv_pos_as_xyz
  1  'x, y, z'
loop_
 _atom_site_type_symbol
 _atom_site_label
 _atom_site_symmetry_multiplicity
 _atom_site_fract_x
 _atom_site_fract_y
 _atom_site_fract_z
 _atom_site_occupancy
  Mn  Mn0  1  0.75000000  0.75000000  0.50000000  1.0
  Mn  Mn1  1  0.25000000  0.75000000  0.00000000  1.0
  Mn  Mn2  1  0.25000000  0.25000000  0.50000000  1.0
  Mn  Mn3  1  0.75000000  0.25000000  0.00000000  1.0
  Mo  Mo4  1  0.79317000  0.48500000  0.32829000  1.0
  Mo  Mo5  1  0.91051000  0.47766000  0.26989000  1.0
  Mo  Mo6  1  0.29317000  0.98500000  0.32829000  1.0
  Mo  Mo7  1  0.41051000  0.97766000  0.26989000  1.0
  Mo  Mo8  1  0.20683000  0.48500000  0.17171000  1.0
  Mo  Mo9  1  0.08949000  0.47766000  0.23011000  1.0
  Mo  Mo10  1  0.70683000  0.98500000  0.17171000  1.0
  Mo  Mo11  1  0.58949000  0.97766000  0.23011000  1.0
  Mo  Mo12  1  0.20683000  0.51500000  0.67171000  1.0
  Mo  Mo13  1  0.08949000  0.52234000  0.73011000  1.0
  Mo  Mo14  1  0.70683000  0.01500000  0.67171000  1.0
  Mo  Mo15  1  0.58949000  0.02234000  0.73011000  1.0
  Mo  Mo16  1  0.79317000  0.51500000  0.82829000  1.0
  Mo  Mo17  1  0.91051000  0.52234000  0.76989000  1.0
  Mo  Mo18  1  0.29317000  0.01500000  0.82829000  1.0
  Mo  Mo19  1  0.41051000  0.02234000  0.76989000  1.0
  Mo  Mo20  1  0.00000000  0.66933000  0.25000000  1.0
  Mo  Mo21  1  0.50000000  0.16933000  0.25000000  1.0
  Mo  Mo22  1  0.00000000  0.33067000  0.75000000  1.0
  Mo  Mo23  1  0.50000000  0.83067000  0.75000000  1.0
  H  H24  1  0.91710000  0.79270000  0.37650000  1.0
  H  H25  1  0.92180000  0.96920000  0.49760000  1.0
  H  H26  1  0.86390000  0.28320000  0.50330000  1.0
  H  H27  1  0.79780000  0.19290000  0.44840000  1.0
  H  H28  1  0.79410000  0.98810000  0.41990000  1.0
  H  H29  1  0.41710000  0.29270000  0.37650000  1.0
  H  H30  1  0.42180000  0.46920000  0.49760000  1.0
  H  H31  1  0.36390000  0.78320000  0.50330000  1.0
  H  H32  1  0.29780000  0.69290000  0.44840000  1.0
  H  H33  1  0.29410000  0.48810000  0.41990000  1.0
  H  H34  1  0.08290000  0.79270000  0.12350000  1.0
  H  H35  1  0.07820000  0.96920000  0.00240000  1.0
  H  H36  1  0.13610000  0.28320000  0.99670000  1.0
  H  H37  1  0.20220000  0.19290000  0.05160000  1.0
  H  H38  1  0.20590000  0.98810000  0.08010000  1.0
  H  H39  1  0.58290000  0.29270000  0.12350000  1.0
  H  H40  1  0.57820000  0.46920000  0.00240000  1.0
  H  H41  1  0.63610000  0.78320000  0.99670000  1.0
  H  H42  1  0.70220000  0.69290000  0.05160000  1.0
  H  H43  1  0.70590000  0.48810000  0.08010000  1.0
  H  H44  1  0.08290000  0.20730000  0.62350000  1.0
  H  H45  1  0.07820000  0.03080000  0.50240000  1.0
  H  H46  1  0.13610000  0.71680000  0.49670000  1.0
  H  H47  1  0.20220000  0.80710000  0.55160000  1.0
  H  H48  1  0.20590000  0.01190000  0.58010000  1.0
  H  H49  1  0.58290000  0.70730000  0.62350000  1.0
  H  H50  1  0.57820000  0.53080000  0.50240000  1.0
  H  H51  1  0.63610000  0.21680000  0.49670000  1.0
  H  H52  1  0.70220000  0.30710000  0.55160000  1.0
  H  H53  1  0.70590000  0.51190000  0.58010000  1.0
  H  H54  1  0.91710000  0.20730000  0.87650000  1.0
  H  H55  1  0.92180000  0.03080000  0.99760000  1.0
  H  H56  1  0.86390000  0.71680000  0.00330000  1.0
  H  H57  1  0.79780000  0.80710000  0.94840000  1.0
  H  H58  1  0.79410000  0.01190000  0.91990000  1.0
  H  H59  1  0.41710000  0.70730000  0.87650000  1.0
  H  H60  1  0.42180000  0.53080000  0.99760000  1.0
  H  H61  1  0.36390000  0.21680000  0.00330000  1.0
  H  H62  1  0.29780000  0.30710000  0.94840000  1.0
  H  H63  1  0.29410000  0.51190000  0.91990000  1.0
  C  C64  1  0.85750000  0.95850000  0.45640000  1.0
  C  C65  1  0.89660000  0.01360000  0.48730000  1.0
  C  C66  1  0.86220000  0.20140000  0.49040000  1.0
  C  C67  1  0.82280000  0.14760000  0.45850000  1.0
  C  C68  1  0.82050000  0.02500000  0.44140000  1.0
  C  C69  1  0.85660000  0.82940000  0.43260000  1.0
  C  C70  1  0.35750000  0.45850000  0.45640000  1.0
  C  C71  1  0.39660000  0.51360000  0.48730000  1.0
  C  C72  1  0.36220000  0.70140000  0.49040000  1.0
  C  C73  1  0.32280000  0.64760000  0.45850000  1.0
  C  C74  1  0.32050000  0.52500000  0.44140000  1.0
  C  C75  1  0.35660000  0.32940000  0.43260000  1.0
  C  C76  1  0.14250000  0.95850000  0.04360000  1.0
  C  C77  1  0.10340000  0.01360000  0.01270000  1.0
  C  C78  1  0.13780000  0.20140000  0.00960000  1.0
  C  C79  1  0.17720000  0.14760000  0.04150000  1.0
  C  C80  1  0.17950000  0.02500000  0.05860000  1.0
  C  C81  1  0.14340000  0.82940000  0.06740000  1.0
  C  C82  1  0.64250000  0.45850000  0.04360000  1.0
  C  C83  1  0.60340000  0.51360000  0.01270000  1.0
  C  C84  1  0.63780000  0.70140000  0.00960000  1.0
  C  C85  1  0.67720000  0.64760000  0.04150000  1.0
  C  C86  1  0.67950000  0.52500000  0.05860000  1.0
  C  C87  1  0.64340000  0.32940000  0.06740000  1.0
  C  C88  1  0.14250000  0.04150000  0.54360000  1.0
  C  C89  1  0.10340000  0.98640000  0.51270000  1.0
  C  C90  1  0.13780000  0.79860000  0.50960000  1.0
  C  C91  1  0.17720000  0.85240000  0.54150000  1.0
  C  C92  1  0.17950000  0.97500000  0.55860000  1.0
  C  C93  1  0.14340000  0.17060000  0.56740000  1.0
  C  C94  1  0.64250000  0.54150000  0.54360000  1.0
  C  C95  1  0.60340000  0.48640000  0.51270000  1.0
  C  C96  1  0.63780000  0.29860000  0.50960000  1.0
  C  C97  1  0.67720000  0.35240000  0.54150000  1.0
  C  C98  1  0.67950000  0.47500000  0.55860000  1.0
  C  C99  1  0.64340000  0.67060000  0.56740000  1.0
  C  C100  1  0.85750000  0.04150000  0.95640000  1.0
  C  C101  1  0.89660000  0.98640000  0.98730000  1.0
  C  C102  1  0.86220000  0.79860000  0.99040000  1.0
  C  C103  1  0.82280000  0.85240000  0.95850000  1.0
  C  C104  1  0.82050000  0.97500000  0.94140000  1.0
  C  C105  1  0.85660000  0.17060000  0.93260000  1.0
  C  C106  1  0.35750000  0.54150000  0.95640000  1.0
  C  C107  1  0.39660000  0.48640000  0.98730000  1.0
  C  C108  1  0.36220000  0.29860000  0.99040000  1.0
  C  C109  1  0.32280000  0.35240000  0.95850000  1.0
  C  C110  1  0.32050000  0.47500000  0.94140000  1.0
  C  C111  1  0.35660000  0.67060000  0.93260000  1.0
  N  N112  1  0.89820000  0.13510000  0.50280000  1.0
  N  N113  1  0.82160000  0.76160000  0.43300000  1.0
  N  N114  1  0.83580000  0.65350000  0.38770000  1.0
  N  N115  1  0.87720000  0.65780000  0.36360000  1.0
  N  N116  1  0.89140000  0.76690000  0.38740000  1.0
  N  N117  1  0.39820000  0.63510000  0.50280000  1.0
  N  N118  1  0.32160000  0.26160000  0.43300000  1.0
  N  N119  1  0.33580000  0.15350000  0.38770000  1.0
  N  N120  1  0.37720000  0.15780000  0.36360000  1.0
  N  N121  1  0.39140000  0.26690000  0.38740000  1.0
  N  N122  1  0.10180000  0.13510000  0.99720000  1.0
  N  N123  1  0.17840000  0.76160000  0.06700000  1.0
  N  N124  1  0.16420000  0.65350000  0.11230000  1.0
  N  N125  1  0.12280000  0.65780000  0.13640000  1.0
  N  N126  1  0.10860000  0.76690000  0.11260000  1.0
  N  N127  1  0.60180000  0.63510000  0.99720000  1.0
  N  N128  1  0.67840000  0.26160000  0.06700000  1.0
  N  N129  1  0.66420000  0.15350000  0.11230000  1.0
  N  N130  1  0.62280000  0.15780000  0.13640000  1.0
  N  N131  1  0.60860000  0.26690000  0.11260000  1.0
  N  N132  1  0.10180000  0.86490000  0.49720000  1.0
  N  N133  1  0.17840000  0.23840000  0.56700000  1.0
  N  N134  1  0.16420000  0.34650000  0.61230000  1.0
  N  N135  1  0.12280000  0.34220000  0.63640000  1.0
  N  N136  1  0.10860000  0.23310000  0.61260000  1.0
  N  N137  1  0.60180000  0.36490000  0.49720000  1.0
  N  N138  1  0.67840000  0.73840000  0.56700000  1.0
  N  N139  1  0.66420000  0.84650000  0.61230000  1.0
  N  N140  1  0.62280000  0.84220000  0.63640000  1.0
  N  N141  1  0.60860000  0.73310000  0.61260000  1.0
  N  N142  1  0.89820000  0.86490000  0.00280000  1.0
  N  N143  1  0.82160000  0.23840000  0.93300000  1.0
  N  N144  1  0.83580000  0.34650000  0.88770000  1.0
  N  N145  1  0.87720000  0.34220000  0.86360000  1.0
  N  N146  1  0.89140000  0.23310000  0.88740000  1.0
  N  N147  1  0.39820000  0.36490000  0.00280000  1.0
  N  N148  1  0.32160000  0.73840000  0.93300000  1.0
  N  N149  1  0.33580000  0.84650000  0.88770000  1.0
  N  N150  1  0.37720000  0.84220000  0.86360000  1.0
  N  N151  1  0.39140000  0.73310000  0.88740000  1.0
  O  O152  1  0.75290000  0.59320000  0.34100000  1.0
  O  O153  1  0.76700000  0.36460000  0.22650000  1.0
  O  O154  1  0.80030000  0.55540000  0.05370000  1.0
  O  O155  1  0.85390000  0.43600000  0.27610000  1.0
  O  O156  1  0.91050000  0.54120000  0.05260000  1.0
  O  O157  1  0.96140000  0.57590000  0.35490000  1.0
  O  O158  1  0.25290000  0.09320000  0.34100000  1.0
  O  O159  1  0.26700000  0.86460000  0.22650000  1.0
  O  O160  1  0.30030000  0.05540000  0.05370000  1.0
  O  O161  1  0.35390000  0.93600000  0.27610000  1.0
  O  O162  1  0.41050000  0.04120000  0.05260000  1.0
  O  O163  1  0.46140000  0.07590000  0.35490000  1.0
  O  O164  1  0.24710000  0.59320000  0.15900000  1.0
  O  O165  1  0.23300000  0.36460000  0.27350000  1.0
  O  O166  1  0.19970000  0.55540000  0.44630000  1.0
  O  O167  1  0.14610000  0.43600000  0.22390000  1.0
  O  O168  1  0.08950000  0.54120000  0.44740000  1.0
  O  O169  1  0.03860000  0.57590000  0.14510000  1.0
  O  O170  1  0.74710000  0.09320000  0.15900000  1.0
  O  O171  1  0.73300000  0.86460000  0.27350000  1.0
  O  O172  1  0.69970000  0.05540000  0.44630000  1.0
  O  O173  1  0.64610000  0.93600000  0.22390000  1.0
  O  O174  1  0.58950000  0.04120000  0.44740000  1.0
  O  O175  1  0.53860000  0.07590000  0.14510000  1.0
  O  O176  1  0.24710000  0.40680000  0.65900000  1.0
  O  O177  1  0.23300000  0.63540000  0.77350000  1.0
  O  O178  1  0.19970000  0.44460000  0.94630000  1.0
  O  O179  1  0.14610000  0.56400000  0.72390000  1.0
  O  O180  1  0.08950000  0.45880000  0.94740000  1.0
  O  O181  1  0.03860000  0.42410000  0.64510000  1.0
  O  O182  1  0.74710000  0.90680000  0.65900000  1.0
  O  O183  1  0.73300000  0.13540000  0.77350000  1.0
  O  O184  1  0.69970000  0.94460000  0.94630000  1.0
  O  O185  1  0.64610000  0.06400000  0.72390000  1.0
  O  O186  1  0.58950000  0.95880000  0.94740000  1.0
  O  O187  1  0.53860000  0.92410000  0.64510000  1.0
  O  O188  1  0.75290000  0.40680000  0.84100000  1.0
  O  O189  1  0.76700000  0.63540000  0.72650000  1.0
  O  O190  1  0.80030000  0.44460000  0.55370000  1.0
  O  O191  1  0.85390000  0.56400000  0.77610000  1.0
  O  O192  1  0.91050000  0.45880000  0.55260000  1.0
  O  O193  1  0.96140000  0.42410000  0.85490000  1.0
  O  O194  1  0.25290000  0.90680000  0.84100000  1.0
  O  O195  1  0.26700000  0.13540000  0.72650000  1.0
  O  O196  1  0.30030000  0.94460000  0.55370000  1.0
  O  O197  1  0.35390000  0.06400000  0.77610000  1.0
  O  O198  1  0.41050000  0.95880000  0.55260000  1.0
  O  O199  1  0.46140000  0.92410000  0.85490000  1.0
