# generated using pymatgen
data_AlH5C8O5
_symmetry_space_group_name_H-M   'P 1'
_cell_length_a   15.94730000
_cell_length_b   6.63100000
_cell_length_c   13.92050000
_cell_angle_alpha   90.00000000
_cell_angle_beta   90.00000000
_cell_angle_gamma   90.00000000
_symmetry_Int_Tables_number   1
_chemical_formula_structural   AlH5C8O5
_chemical_formula_sum   'Al4 H20 C32 O20'
_cell_volume   1472.04479777
_cell_formula_units_Z   4
loop_
 _symmetry_equiv_pos_site_id
 _symmetry_equiv_pos_as_xyz
  1  'x, y, z'
loop_
 _atom_site_type_symbol
 _atom_site_label
 _atom_site_symmetry_multiplicity
 _atom_site_fract_x
 _atom_site_fract_y
 _atom_site_fract_z
 _atom_site_occupancy
  Al  Al0  1  0.00127000  0.49458000  0.50093000  1.0
  Al  Al1  1  0.50021000  0.99641000  0.00072000  1.0
  Al  Al2  1  0.00100000  0.99515000  0.50031000  1.0
  Al  Al3  1  0.50004000  0.49638000  0.00040000  1.0
  H  H4  1  0.19167000  0.42223000  0.69458000  1.0
  H  H5  1  0.69240000  0.92279000  0.19292000  1.0
  H  H6  1  0.80897000  0.06980000  0.69266000  1.0
  H  H7  1  0.30901000  0.57065000  0.19401000  1.0
  H  H8  1  0.80904000  0.92247000  0.30738000  1.0
  H  H9  1  0.30922000  0.42239000  0.80767000  1.0
  H  H10  1  0.19125000  0.56976000  0.30689000  1.0
  H  H11  1  0.69135000  0.07080000  0.80595000  1.0
  H  H12  1  0.80922000  0.57124000  0.30769000  1.0
  H  H13  1  0.30906000  0.07148000  0.80749000  1.0
  H  H14  1  0.19170000  0.92074000  0.30637000  1.0
  H  H15  1  0.69084000  0.42201000  0.80632000  1.0
  H  H16  1  0.19151000  0.07109000  0.69425000  1.0
  H  H17  1  0.69255000  0.57148000  0.19308000  1.0
  H  H18  1  0.80848000  0.42109000  0.69317000  1.0
  H  H19  1  0.30950000  0.92173000  0.19360000  1.0
  H  H20  1  0.00570000  0.24441000  0.61384000  1.0
  H  H21  1  0.00693000  0.74436000  0.38739000  1.0
  H  H22  1  0.49850000  0.74597000  0.11392000  1.0
  H  H23  1  0.49513000  0.24599000  0.88731000  1.0
  C  C24  1  0.21636000  0.56510000  0.71871000  1.0
  C  C25  1  0.71722000  0.06557000  0.21719000  1.0
  C  C26  1  0.78381000  0.92729000  0.71670000  1.0
  C  C27  1  0.28434000  0.42760000  0.21808000  1.0
  C  C28  1  0.78444000  0.06532000  0.28298000  1.0
  C  C29  1  0.28400000  0.56528000  0.78389000  1.0
  C  C30  1  0.21653000  0.42718000  0.28305000  1.0
  C  C31  1  0.71607000  0.92774000  0.78188000  1.0
  C  C32  1  0.78453000  0.42846000  0.28316000  1.0
  C  C33  1  0.28392000  0.92859000  0.78378000  1.0
  C  C34  1  0.21676000  0.06386000  0.28278000  1.0
  C  C35  1  0.71580000  0.56462000  0.78208000  1.0
  C  C36  1  0.21628000  0.92831000  0.71853000  1.0
  C  C37  1  0.71731000  0.42870000  0.21729000  1.0
  C  C38  1  0.78356000  0.56418000  0.71696000  1.0
  C  C39  1  0.28460000  0.06433000  0.21787000  1.0
  C  C40  1  0.68240000  0.24727000  0.18287000  1.0
  C  C41  1  0.61065000  0.24714000  0.11180000  1.0
  C  C42  1  0.18111000  0.74650000  0.68495000  1.0
  C  C43  1  0.10966000  0.74595000  0.61402000  1.0
  C  C44  1  0.31984000  0.24621000  0.18450000  1.0
  C  C45  1  0.39149000  0.24649000  0.11377000  1.0
  C  C46  1  0.81895000  0.74548000  0.68299000  1.0
  C  C47  1  0.89112000  0.74508000  0.61241000  1.0
  C  C48  1  0.31892000  0.74710000  0.81776000  1.0
  C  C49  1  0.39047000  0.74704000  0.88852000  1.0
  C  C50  1  0.81947000  0.24668000  0.31727000  1.0
  C  C51  1  0.89109000  0.24608000  0.38855000  1.0
  C  C52  1  0.68084000  0.74639000  0.81599000  1.0
  C  C53  1  0.60929000  0.74659000  0.88729000  1.0
  C  C54  1  0.18174000  0.24533000  0.31692000  1.0
  C  C55  1  0.11049000  0.24486000  0.38808000  1.0
  O  O56  1  0.08062000  0.57422000  0.58505000  1.0
  O  O57  1  0.58134000  0.07542000  0.08297000  1.0
  O  O58  1  0.92025000  0.91622000  0.58289000  1.0
  O  O59  1  0.42024000  0.41808000  0.08417000  1.0
  O  O60  1  0.92045000  0.07429000  0.41733000  1.0
  O  O61  1  0.41955000  0.57549000  0.91758000  1.0
  O  O62  1  0.08166000  0.41647000  0.41779000  1.0
  O  O63  1  0.58038000  0.91824000  0.91689000  1.0
  O  O64  1  0.92017000  0.41743000  0.41820000  1.0
  O  O65  1  0.41953000  0.91830000  0.91797000  1.0
  O  O66  1  0.08136000  0.07312000  0.41698000  1.0
  O  O67  1  0.58003000  0.57496000  0.91643000  1.0
  O  O68  1  0.08094000  0.91732000  0.58415000  1.0
  O  O69  1  0.58133000  0.41850000  0.08258000  1.0
  O  O70  1  0.92054000  0.57338000  0.58370000  1.0
  O  O71  1  0.42062000  0.07495000  0.08463000  1.0
  O  O72  1  0.00339000  0.74456000  0.44919000  1.0
  O  O73  1  0.49828000  0.24616000  0.94921000  1.0
  O  O74  1  0.00294000  0.24460000  0.55192000  1.0
  O  O75  1  0.49957000  0.74618000  0.05199000  1.0
