# generated using pymatgen
data_Na2Ag3H9C18S3N3O8
_symmetry_space_group_name_H-M   'P 1'
_cell_length_a   12.11190000
_cell_length_b   12.55550000
_cell_length_c   12.65650000
_cell_angle_alpha   62.87400000
_cell_angle_beta   70.15100000
_cell_angle_gamma   84.07500000
_symmetry_Int_Tables_number   1
_chemical_formula_structural   Na2Ag3H9C18S3N3O8
_chemical_formula_sum   'Na4 Ag6 H18 C36 S6 N6 O16'
_cell_volume   1608.15293304
_cell_formula_units_Z   2
loop_
 _symmetry_equiv_pos_site_id
 _symmetry_equiv_pos_as_xyz
  1  'x, y, z'
loop_
 _atom_site_type_symbol
 _atom_site_label
 _atom_site_symmetry_multiplicity
 _atom_site_fract_x
 _atom_site_fract_y
 _atom_site_fract_z
 _atom_site_occupancy
  Na  Na0  1  0.55857000  0.66825000  0.90787000  1.0
  Na  Na1  1  0.45928000  0.87323000  0.65559000  1.0
  Na  Na2  1  0.44143000  0.33175000  0.09213000  1.0
  Na  Na3  1  0.54072000  0.12677000  0.34441000  1.0
  Ag  Ag4  1  0.91922000  0.61864000  0.35518000  1.0
  Ag  Ag5  1  0.11156000  0.45718000  0.34291000  1.0
  Ag  Ag6  1  0.10582000  0.67072000  0.43339000  1.0
  Ag  Ag7  1  0.08078000  0.38136000  0.64482000  1.0
  Ag  Ag8  1  0.88844000  0.54282000  0.65709000  1.0
  Ag  Ag9  1  0.89418000  0.32928000  0.56661000  1.0
  H  H10  1  0.20450000  0.95370000  0.82830000  1.0
  H  H11  1  0.99960000  0.94630000  0.89510000  1.0
  H  H12  1  0.89660000  0.82360000  0.10220000  1.0
  H  H13  1  0.89360000  0.32590000  0.05520000  1.0
  H  H14  1  0.09680000  0.34200000  0.99820000  1.0
  H  H15  1  0.17840000  0.39460000  0.10860000  1.0
  H  H16  1  0.86160000  0.12220000  0.37780000  1.0
  H  H17  1  0.06510000  0.12510000  0.30570000  1.0
  H  H18  1  0.15380000  0.94940000  0.32470000  1.0
  H  H19  1  0.79550000  0.04630000  0.17170000  1.0
  H  H20  1  0.00040000  0.05370000  0.10490000  1.0
  H  H21  1  0.10340000  0.17640000  0.89780000  1.0
  H  H22  1  0.10640000  0.67410000  0.94480000  1.0
  H  H23  1  0.90320000  0.65800000  0.00180000  1.0
  H  H24  1  0.82160000  0.60540000  0.89140000  1.0
  H  H25  1  0.13840000  0.87780000  0.62220000  1.0
  H  H26  1  0.93490000  0.87490000  0.69430000  1.0
  H  H27  1  0.84620000  0.05060000  0.67530000  1.0
  C  C28  1  0.14990000  0.75810000  0.12040000  1.0
  C  C29  1  0.21860000  0.83570000  0.99690000  1.0
  C  C30  1  0.35160000  0.84530000  0.95190000  1.0
  C  C31  1  0.16120000  0.90460000  0.91160000  1.0
  C  C32  1  0.03920000  0.90000000  0.95080000  1.0
  C  C33  1  0.97830000  0.82470000  0.07480000  1.0
  C  C34  1  0.91350000  0.40180000  0.26100000  1.0
  C  C35  1  0.85870000  0.36580000  0.20060000  1.0
  C  C36  1  0.72640000  0.34200000  0.24700000  1.0
  C  C37  1  0.92820000  0.34610000  0.09940000  1.0
  C  C38  1  0.04890000  0.35650000  0.06480000  1.0
  C  C39  1  0.09700000  0.38890000  0.13090000  1.0
  C  C40  1  0.89170000  0.84250000  0.43970000  1.0
  C  C41  1  0.83270000  0.94660000  0.43070000  1.0
  C  C42  1  0.69980000  0.94910000  0.47430000  1.0
  C  C43  1  0.89890000  0.05250000  0.38220000  1.0
  C  C44  1  0.01980000  0.05420000  0.34070000  1.0
  C  C45  1  0.07220000  0.94860000  0.35210000  1.0
  C  C46  1  0.85010000  0.24190000  0.87960000  1.0
  C  C47  1  0.78140000  0.16430000  0.00310000  1.0
  C  C48  1  0.64840000  0.15470000  0.04810000  1.0
  C  C49  1  0.83880000  0.09540000  0.08840000  1.0
  C  C50  1  0.96080000  0.10000000  0.04920000  1.0
  C  C51  1  0.02170000  0.17530000  0.92520000  1.0
  C  C52  1  0.08650000  0.59820000  0.73900000  1.0
  C  C53  1  0.14130000  0.63420000  0.79940000  1.0
  C  C54  1  0.27360000  0.65800000  0.75300000  1.0
  C  C55  1  0.07180000  0.65390000  0.90060000  1.0
  C  C56  1  0.95110000  0.64350000  0.93520000  1.0
  C  C57  1  0.90300000  0.61110000  0.86910000  1.0
  C  C58  1  0.10830000  0.15750000  0.56030000  1.0
  C  C59  1  0.16730000  0.05340000  0.56930000  1.0
  C  C60  1  0.30020000  0.05090000  0.52570000  1.0
  C  C61  1  0.10110000  0.94750000  0.61780000  1.0
  C  C62  1  0.98020000  0.94580000  0.65930000  1.0
  C  C63  1  0.92780000  0.05140000  0.64790000  1.0
  S  S64  1  0.21804000  0.66072000  0.23060000  1.0
  S  S65  1  0.82649000  0.43781000  0.38214000  1.0
  S  S66  1  0.81200000  0.70506000  0.50016000  1.0
  S  S67  1  0.78196000  0.33928000  0.76940000  1.0
  S  S68  1  0.17351000  0.56219000  0.61786000  1.0
  S  S69  1  0.18800000  0.29494000  0.49984000  1.0
  N  N70  1  0.03120000  0.75310000  0.15780000  1.0
  N  N71  1  0.03150000  0.41260000  0.22600000  1.0
  N  N72  1  0.01000000  0.84440000  0.40140000  1.0
  N  N73  1  0.96880000  0.24690000  0.84220000  1.0
  N  N74  1  0.96850000  0.58740000  0.77400000  1.0
  N  N75  1  0.99000000  0.15560000  0.59860000  1.0
  O  O76  1  0.40440000  0.80990000  0.87160000  1.0
  O  O77  1  0.40080000  0.89000000  0.99760000  1.0
  O  O78  1  0.68260000  0.24710000  0.34180000  1.0
  O  O79  1  0.66890000  0.41960000  0.18360000  1.0
  O  O80  1  0.64600000  0.94880000  0.40540000  1.0
  O  O81  1  0.65200000  0.95740000  0.57490000  1.0
  O  O82  1  0.55540000  0.68530000  0.71690000  1.0
  O  O83  1  0.37240000  0.53510000  0.03940000  1.0
  O  O84  1  0.59560000  0.19010000  0.12840000  1.0
  O  O85  1  0.59920000  0.11000000  0.00240000  1.0
  O  O86  1  0.31740000  0.75290000  0.65820000  1.0
  O  O87  1  0.33110000  0.58040000  0.81640000  1.0
  O  O88  1  0.35400000  0.05120000  0.59460000  1.0
  O  O89  1  0.34800000  0.04260000  0.42510000  1.0
  O  O90  1  0.44460000  0.31470000  0.28310000  1.0
  O  O91  1  0.62760000  0.46490000  0.96060000  1.0
