# generated using pymatgen
data_Zr3H32(C3O)12
_symmetry_space_group_name_H-M   'P 1'
_cell_length_a   24.21800000
_cell_length_b   24.21800000
_cell_length_c   15.35900000
_cell_angle_alpha   90.00000000
_cell_angle_beta   90.00000000
_cell_angle_gamma   90.00000000
_symmetry_Int_Tables_number   1
_chemical_formula_structural   Zr3H32(C3O)12
_chemical_formula_sum   'Zr12 H128 C144 O48'
_cell_volume   9008.23049712
_cell_formula_units_Z   4
loop_
 _symmetry_equiv_pos_site_id
 _symmetry_equiv_pos_as_xyz
  1  'x, y, z'
loop_
 _atom_site_type_symbol
 _atom_site_label
 _atom_site_symmetry_multiplicity
 _atom_site_fract_x
 _atom_site_fract_y
 _atom_site_fract_z
 _atom_site_occupancy
  Zr  Zr0  1  0.00000000  0.39854000  0.50000000  1.0
  Zr  Zr1  1  0.00000000  0.60146000  0.50000000  1.0
  Zr  Zr2  1  0.60146000  0.00000000  0.00000000  1.0
  Zr  Zr3  1  0.39854000  0.00000000  0.00000000  1.0
  Zr  Zr4  1  0.92729000  0.50000000  0.61488000  1.0
  Zr  Zr5  1  0.07271000  0.50000000  0.61488000  1.0
  Zr  Zr6  1  0.50000000  0.92729000  0.11488000  1.0
  Zr  Zr7  1  0.50000000  0.07271000  0.11488000  1.0
  Zr  Zr8  1  0.07271000  0.50000000  0.38512000  1.0
  Zr  Zr9  1  0.92729000  0.50000000  0.38512000  1.0
  Zr  Zr10  1  0.50000000  0.92729000  0.88512000  1.0
  Zr  Zr11  1  0.50000000  0.07271000  0.88512000  1.0
  H  H12  1  0.10740000  0.26340000  0.58840000  1.0
  H  H13  1  0.16630000  0.37350000  0.76430000  1.0
  H  H14  1  0.14150000  0.15220000  0.65550000  1.0
  H  H15  1  0.20640000  0.15880000  0.63900000  1.0
  H  H16  1  0.16340000  0.17700000  0.56530000  1.0
  H  H17  1  0.23880000  0.28060000  0.88900000  1.0
  H  H18  1  0.23500000  0.34540000  0.86950000  1.0
  H  H19  1  0.28080000  0.30860000  0.82180000  1.0
  H  H20  1  0.89260000  0.73660000  0.58840000  1.0
  H  H21  1  0.83370000  0.62650000  0.76430000  1.0
  H  H22  1  0.85850000  0.84780000  0.65550000  1.0
  H  H23  1  0.79360000  0.84120000  0.63900000  1.0
  H  H24  1  0.83660000  0.82300000  0.56530000  1.0
  H  H25  1  0.76120000  0.71940000  0.88900000  1.0
  H  H26  1  0.76500000  0.65460000  0.86950000  1.0
  H  H27  1  0.71920000  0.69140000  0.82180000  1.0
  H  H28  1  0.73660000  0.10740000  0.08840000  1.0
  H  H29  1  0.62650000  0.16630000  0.26430000  1.0
  H  H30  1  0.84780000  0.14150000  0.15550000  1.0
  H  H31  1  0.84120000  0.20640000  0.13900000  1.0
  H  H32  1  0.82300000  0.16340000  0.06530000  1.0
  H  H33  1  0.71940000  0.23880000  0.38900000  1.0
  H  H34  1  0.65460000  0.23500000  0.36950000  1.0
  H  H35  1  0.69140000  0.28080000  0.32180000  1.0
  H  H36  1  0.26340000  0.89260000  0.08840000  1.0
  H  H37  1  0.37350000  0.83370000  0.26430000  1.0
  H  H38  1  0.15220000  0.85850000  0.15550000  1.0
  H  H39  1  0.15880000  0.79360000  0.13900000  1.0
  H  H40  1  0.17700000  0.83660000  0.06530000  1.0
  H  H41  1  0.28060000  0.76120000  0.38900000  1.0
  H  H42  1  0.34540000  0.76500000  0.36950000  1.0
  H  H43  1  0.30860000  0.71920000  0.32180000  1.0
  H  H44  1  0.89260000  0.26340000  0.41160000  1.0
  H  H45  1  0.83370000  0.37350000  0.23570000  1.0
  H  H46  1  0.85850000  0.15220000  0.34450000  1.0
  H  H47  1  0.79360000  0.15880000  0.36100000  1.0
  H  H48  1  0.83660000  0.17700000  0.43470000  1.0
  H  H49  1  0.76120000  0.28060000  0.11100000  1.0
  H  H50  1  0.76500000  0.34540000  0.13050000  1.0
  H  H51  1  0.71920000  0.30860000  0.17820000  1.0
  H  H52  1  0.10740000  0.73660000  0.41160000  1.0
  H  H53  1  0.16630000  0.62650000  0.23570000  1.0
  H  H54  1  0.14150000  0.84780000  0.34450000  1.0
  H  H55  1  0.20640000  0.84120000  0.36100000  1.0
  H  H56  1  0.16340000  0.82300000  0.43470000  1.0
  H  H57  1  0.23880000  0.71940000  0.11100000  1.0
  H  H58  1  0.23500000  0.65460000  0.13050000  1.0
  H  H59  1  0.28080000  0.69140000  0.17820000  1.0
  H  H60  1  0.26340000  0.10740000  0.91160000  1.0
  H  H61  1  0.37350000  0.16630000  0.73570000  1.0
  H  H62  1  0.15220000  0.14150000  0.84450000  1.0
  H  H63  1  0.15880000  0.20640000  0.86100000  1.0
  H  H64  1  0.17700000  0.16340000  0.93470000  1.0
  H  H65  1  0.28060000  0.23880000  0.61100000  1.0
  H  H66  1  0.34540000  0.23500000  0.63050000  1.0
  H  H67  1  0.30860000  0.28080000  0.67820000  1.0
  H  H68  1  0.73660000  0.89260000  0.91160000  1.0
  H  H69  1  0.62650000  0.83370000  0.73570000  1.0
  H  H70  1  0.84780000  0.85850000  0.84450000  1.0
  H  H71  1  0.84120000  0.79360000  0.86100000  1.0
  H  H72  1  0.82300000  0.83660000  0.93470000  1.0
  H  H73  1  0.71940000  0.76120000  0.61100000  1.0
  H  H74  1  0.65460000  0.76500000  0.63050000  1.0
  H  H75  1  0.69140000  0.71920000  0.67820000  1.0
  H  H76  1  0.89260000  0.73660000  0.41160000  1.0
  H  H77  1  0.83370000  0.62650000  0.23570000  1.0
  H  H78  1  0.85850000  0.84780000  0.34450000  1.0
  H  H79  1  0.79360000  0.84120000  0.36100000  1.0
  H  H80  1  0.83660000  0.82300000  0.43470000  1.0
  H  H81  1  0.76120000  0.71940000  0.11100000  1.0
  H  H82  1  0.76500000  0.65460000  0.13050000  1.0
  H  H83  1  0.71920000  0.69140000  0.17820000  1.0
  H  H84  1  0.10740000  0.26340000  0.41160000  1.0
  H  H85  1  0.16630000  0.37350000  0.23570000  1.0
  H  H86  1  0.14150000  0.15220000  0.34450000  1.0
  H  H87  1  0.20640000  0.15880000  0.36100000  1.0
  H  H88  1  0.16340000  0.17700000  0.43470000  1.0
  H  H89  1  0.23880000  0.28060000  0.11100000  1.0
  H  H90  1  0.23500000  0.34540000  0.13050000  1.0
  H  H91  1  0.28080000  0.30860000  0.17820000  1.0
  H  H92  1  0.26340000  0.89260000  0.91160000  1.0
  H  H93  1  0.37350000  0.83370000  0.73570000  1.0
  H  H94  1  0.15220000  0.85850000  0.84450000  1.0
  H  H95  1  0.15880000  0.79360000  0.86100000  1.0
  H  H96  1  0.17700000  0.83660000  0.93470000  1.0
  H  H97  1  0.28060000  0.76120000  0.61100000  1.0
  H  H98  1  0.34540000  0.76500000  0.63050000  1.0
  H  H99  1  0.30860000  0.71920000  0.67820000  1.0
  H  H100  1  0.73660000  0.10740000  0.91160000  1.0
  H  H101  1  0.62650000  0.16630000  0.73570000  1.0
  H  H102  1  0.84780000  0.14150000  0.84450000  1.0
  H  H103  1  0.84120000  0.20640000  0.86100000  1.0
  H  H104  1  0.82300000  0.16340000  0.93470000  1.0
  H  H105  1  0.71940000  0.23880000  0.61100000  1.0
  H  H106  1  0.65460000  0.23500000  0.63050000  1.0
  H  H107  1  0.69140000  0.28080000  0.67820000  1.0
  H  H108  1  0.10740000  0.73660000  0.58840000  1.0
  H  H109  1  0.16630000  0.62650000  0.76430000  1.0
  H  H110  1  0.14150000  0.84780000  0.65550000  1.0
  H  H111  1  0.20640000  0.84120000  0.63900000  1.0
  H  H112  1  0.16340000  0.82300000  0.56530000  1.0
  H  H113  1  0.23880000  0.71940000  0.88900000  1.0
  H  H114  1  0.23500000  0.65460000  0.86950000  1.0
  H  H115  1  0.28080000  0.69140000  0.82180000  1.0
  H  H116  1  0.89260000  0.26340000  0.58840000  1.0
  H  H117  1  0.83370000  0.37350000  0.76430000  1.0
  H  H118  1  0.85850000  0.15220000  0.65550000  1.0
  H  H119  1  0.79360000  0.15880000  0.63900000  1.0
  H  H120  1  0.83660000  0.17700000  0.56530000  1.0
  H  H121  1  0.76120000  0.28060000  0.88900000  1.0
  H  H122  1  0.76500000  0.34540000  0.86950000  1.0
  H  H123  1  0.71920000  0.30860000  0.82180000  1.0
  H  H124  1  0.73660000  0.89260000  0.08840000  1.0
  H  H125  1  0.62650000  0.83370000  0.26430000  1.0
  H  H126  1  0.84780000  0.85850000  0.15550000  1.0
  H  H127  1  0.84120000  0.79360000  0.13900000  1.0
  H  H128  1  0.82300000  0.83660000  0.06530000  1.0
  H  H129  1  0.71940000  0.76120000  0.38900000  1.0
  H  H130  1  0.65460000  0.76500000  0.36950000  1.0
  H  H131  1  0.69140000  0.71920000  0.32180000  1.0
  H  H132  1  0.26340000  0.10740000  0.08840000  1.0
  H  H133  1  0.37350000  0.16630000  0.26430000  1.0
  H  H134  1  0.15220000  0.14150000  0.15550000  1.0
  H  H135  1  0.15880000  0.20640000  0.13900000  1.0
  H  H136  1  0.17700000  0.16340000  0.06530000  1.0
  H  H137  1  0.28060000  0.23880000  0.38900000  1.0
  H  H138  1  0.34540000  0.23500000  0.36950000  1.0
  H  H139  1  0.30860000  0.28080000  0.32180000  1.0
  C  C140  1  0.16817000  0.23248000  0.66630000  1.0
  C  C141  1  0.13176000  0.27219000  0.63480000  1.0
  C  C142  1  0.13112000  0.32467000  0.67140000  1.0
  C  C143  1  0.20312000  0.29790000  0.77070000  1.0
  C  C144  1  0.20383000  0.24539000  0.73420000  1.0
  C  C145  1  0.16675000  0.33758000  0.73930000  1.0
  C  C146  1  0.17000000  0.17511000  0.62820000  1.0
  C  C147  1  0.09181000  0.36800000  0.63780000  1.0
  C  C148  1  0.24290000  0.30910000  0.84420000  1.0
  C  C149  1  0.83183000  0.76752000  0.66630000  1.0
  C  C150  1  0.86824000  0.72781000  0.63480000  1.0
  C  C151  1  0.86888000  0.67533000  0.67140000  1.0
  C  C152  1  0.79688000  0.70210000  0.77070000  1.0
  C  C153  1  0.79617000  0.75461000  0.73420000  1.0
  C  C154  1  0.83325000  0.66242000  0.73930000  1.0
  C  C155  1  0.83000000  0.82489000  0.62820000  1.0
  C  C156  1  0.90819000  0.63200000  0.63780000  1.0
  C  C157  1  0.75710000  0.69090000  0.84420000  1.0
  C  C158  1  0.76752000  0.16817000  0.16630000  1.0
  C  C159  1  0.72781000  0.13176000  0.13480000  1.0
  C  C160  1  0.67533000  0.13112000  0.17140000  1.0
  C  C161  1  0.70210000  0.20312000  0.27070000  1.0
  C  C162  1  0.75461000  0.20383000  0.23420000  1.0
  C  C163  1  0.66242000  0.16675000  0.23930000  1.0
  C  C164  1  0.82489000  0.17000000  0.12820000  1.0
  C  C165  1  0.63200000  0.09181000  0.13780000  1.0
  C  C166  1  0.69090000  0.24290000  0.34420000  1.0
  C  C167  1  0.23248000  0.83183000  0.16630000  1.0
  C  C168  1  0.27219000  0.86824000  0.13480000  1.0
  C  C169  1  0.32467000  0.86888000  0.17140000  1.0
  C  C170  1  0.29790000  0.79688000  0.27070000  1.0
  C  C171  1  0.24539000  0.79617000  0.23420000  1.0
  C  C172  1  0.33758000  0.83325000  0.23930000  1.0
  C  C173  1  0.17511000  0.83000000  0.12820000  1.0
  C  C174  1  0.36800000  0.90819000  0.13780000  1.0
  C  C175  1  0.30910000  0.75710000  0.34420000  1.0
  C  C176  1  0.83183000  0.23248000  0.33370000  1.0
  C  C177  1  0.86824000  0.27219000  0.36520000  1.0
  C  C178  1  0.86888000  0.32467000  0.32860000  1.0
  C  C179  1  0.79688000  0.29790000  0.22930000  1.0
  C  C180  1  0.79617000  0.24539000  0.26580000  1.0
  C  C181  1  0.83325000  0.33758000  0.26070000  1.0
  C  C182  1  0.83000000  0.17511000  0.37180000  1.0
  C  C183  1  0.90819000  0.36800000  0.36220000  1.0
  C  C184  1  0.75710000  0.30910000  0.15580000  1.0
  C  C185  1  0.16817000  0.76752000  0.33370000  1.0
  C  C186  1  0.13176000  0.72781000  0.36520000  1.0
  C  C187  1  0.13112000  0.67533000  0.32860000  1.0
  C  C188  1  0.20312000  0.70210000  0.22930000  1.0
  C  C189  1  0.20383000  0.75461000  0.26580000  1.0
  C  C190  1  0.16675000  0.66242000  0.26070000  1.0
  C  C191  1  0.17000000  0.82489000  0.37180000  1.0
  C  C192  1  0.09181000  0.63200000  0.36220000  1.0
  C  C193  1  0.24290000  0.69090000  0.15580000  1.0
  C  C194  1  0.23248000  0.16817000  0.83370000  1.0
  C  C195  1  0.27219000  0.13176000  0.86520000  1.0
  C  C196  1  0.32467000  0.13112000  0.82860000  1.0
  C  C197  1  0.29790000  0.20312000  0.72930000  1.0
  C  C198  1  0.24539000  0.20383000  0.76580000  1.0
  C  C199  1  0.33758000  0.16675000  0.76070000  1.0
  C  C200  1  0.17511000  0.17000000  0.87180000  1.0
  C  C201  1  0.36800000  0.09181000  0.86220000  1.0
  C  C202  1  0.30910000  0.24290000  0.65580000  1.0
  C  C203  1  0.76752000  0.83183000  0.83370000  1.0
  C  C204  1  0.72781000  0.86824000  0.86520000  1.0
  C  C205  1  0.67533000  0.86888000  0.82860000  1.0
  C  C206  1  0.70210000  0.79688000  0.72930000  1.0
  C  C207  1  0.75461000  0.79617000  0.76580000  1.0
  C  C208  1  0.66242000  0.83325000  0.76070000  1.0
  C  C209  1  0.82489000  0.83000000  0.87180000  1.0
  C  C210  1  0.63200000  0.90819000  0.86220000  1.0
  C  C211  1  0.69090000  0.75710000  0.65580000  1.0
  C  C212  1  0.83183000  0.76752000  0.33370000  1.0
  C  C213  1  0.86824000  0.72781000  0.36520000  1.0
  C  C214  1  0.86888000  0.67533000  0.32860000  1.0
  C  C215  1  0.79688000  0.70210000  0.22930000  1.0
  C  C216  1  0.79617000  0.75461000  0.26580000  1.0
  C  C217  1  0.83325000  0.66242000  0.26070000  1.0
  C  C218  1  0.83000000  0.82489000  0.37180000  1.0
  C  C219  1  0.90819000  0.63200000  0.36220000  1.0
  C  C220  1  0.75710000  0.69090000  0.15580000  1.0
  C  C221  1  0.16817000  0.23248000  0.33370000  1.0
  C  C222  1  0.13176000  0.27219000  0.36520000  1.0
  C  C223  1  0.13112000  0.32467000  0.32860000  1.0
  C  C224  1  0.20312000  0.29790000  0.22930000  1.0
  C  C225  1  0.20383000  0.24539000  0.26580000  1.0
  C  C226  1  0.16675000  0.33758000  0.26070000  1.0
  C  C227  1  0.17000000  0.17511000  0.37180000  1.0
  C  C228  1  0.09181000  0.36800000  0.36220000  1.0
  C  C229  1  0.24290000  0.30910000  0.15580000  1.0
  C  C230  1  0.23248000  0.83183000  0.83370000  1.0
  C  C231  1  0.27219000  0.86824000  0.86520000  1.0
  C  C232  1  0.32467000  0.86888000  0.82860000  1.0
  C  C233  1  0.29790000  0.79688000  0.72930000  1.0
  C  C234  1  0.24539000  0.79617000  0.76580000  1.0
  C  C235  1  0.33758000  0.83325000  0.76070000  1.0
  C  C236  1  0.17511000  0.83000000  0.87180000  1.0
  C  C237  1  0.36800000  0.90819000  0.86220000  1.0
  C  C238  1  0.30910000  0.75710000  0.65580000  1.0
  C  C239  1  0.76752000  0.16817000  0.83370000  1.0
  C  C240  1  0.72781000  0.13176000  0.86520000  1.0
  C  C241  1  0.67533000  0.13112000  0.82860000  1.0
  C  C242  1  0.70210000  0.20312000  0.72930000  1.0
  C  C243  1  0.75461000  0.20383000  0.76580000  1.0
  C  C244  1  0.66242000  0.16675000  0.76070000  1.0
  C  C245  1  0.82489000  0.17000000  0.87180000  1.0
  C  C246  1  0.63200000  0.09181000  0.86220000  1.0
  C  C247  1  0.69090000  0.24290000  0.65580000  1.0
  C  C248  1  0.16817000  0.76752000  0.66630000  1.0
  C  C249  1  0.13176000  0.72781000  0.63480000  1.0
  C  C250  1  0.13112000  0.67533000  0.67140000  1.0
  C  C251  1  0.20312000  0.70210000  0.77070000  1.0
  C  C252  1  0.20383000  0.75461000  0.73420000  1.0
  C  C253  1  0.16675000  0.66242000  0.73930000  1.0
  C  C254  1  0.17000000  0.82489000  0.62820000  1.0
  C  C255  1  0.09181000  0.63200000  0.63780000  1.0
  C  C256  1  0.24290000  0.69090000  0.84420000  1.0
  C  C257  1  0.83183000  0.23248000  0.66630000  1.0
  C  C258  1  0.86824000  0.27219000  0.63480000  1.0
  C  C259  1  0.86888000  0.32467000  0.67140000  1.0
  C  C260  1  0.79688000  0.29790000  0.77070000  1.0
  C  C261  1  0.79617000  0.24539000  0.73420000  1.0
  C  C262  1  0.83325000  0.33758000  0.73930000  1.0
  C  C263  1  0.83000000  0.17511000  0.62820000  1.0
  C  C264  1  0.90819000  0.36800000  0.63780000  1.0
  C  C265  1  0.75710000  0.30910000  0.84420000  1.0
  C  C266  1  0.76752000  0.83183000  0.16630000  1.0
  C  C267  1  0.72781000  0.86824000  0.13480000  1.0
  C  C268  1  0.67533000  0.86888000  0.17140000  1.0
  C  C269  1  0.70210000  0.79688000  0.27070000  1.0
  C  C270  1  0.75461000  0.79617000  0.23420000  1.0
  C  C271  1  0.66242000  0.83325000  0.23930000  1.0
  C  C272  1  0.82489000  0.83000000  0.12820000  1.0
  C  C273  1  0.63200000  0.90819000  0.13780000  1.0
  C  C274  1  0.69090000  0.75710000  0.34420000  1.0
  C  C275  1  0.23248000  0.16817000  0.16630000  1.0
  C  C276  1  0.27219000  0.13176000  0.13480000  1.0
  C  C277  1  0.32467000  0.13112000  0.17140000  1.0
  C  C278  1  0.29790000  0.20312000  0.27070000  1.0
  C  C279  1  0.24539000  0.20383000  0.23420000  1.0
  C  C280  1  0.33758000  0.16675000  0.23930000  1.0
  C  C281  1  0.17511000  0.17000000  0.12820000  1.0
  C  C282  1  0.36800000  0.09181000  0.13780000  1.0
  C  C283  1  0.30910000  0.24290000  0.34420000  1.0
  O  O284  1  0.05458000  0.35140000  0.58510000  1.0
  O  O285  1  0.10225000  0.41728000  0.66120000  1.0
  O  O286  1  0.94542000  0.64860000  0.58510000  1.0
  O  O287  1  0.89775000  0.58272000  0.66120000  1.0
  O  O288  1  0.64860000  0.05458000  0.08510000  1.0
  O  O289  1  0.58272000  0.10225000  0.16120000  1.0
  O  O290  1  0.35140000  0.94542000  0.08510000  1.0
  O  O291  1  0.41728000  0.89775000  0.16120000  1.0
  O  O292  1  0.94542000  0.35140000  0.41490000  1.0
  O  O293  1  0.89775000  0.41728000  0.33880000  1.0
  O  O294  1  0.05458000  0.64860000  0.41490000  1.0
  O  O295  1  0.10225000  0.58272000  0.33880000  1.0
  O  O296  1  0.35140000  0.05458000  0.91490000  1.0
  O  O297  1  0.41728000  0.10225000  0.83880000  1.0
  O  O298  1  0.64860000  0.94542000  0.91490000  1.0
  O  O299  1  0.58272000  0.89775000  0.83880000  1.0
  O  O300  1  0.94542000  0.64860000  0.41490000  1.0
  O  O301  1  0.89775000  0.58272000  0.33880000  1.0
  O  O302  1  0.05458000  0.35140000  0.41490000  1.0
  O  O303  1  0.10225000  0.41728000  0.33880000  1.0
  O  O304  1  0.35140000  0.94542000  0.91490000  1.0
  O  O305  1  0.41728000  0.89775000  0.83880000  1.0
  O  O306  1  0.64860000  0.05458000  0.91490000  1.0
  O  O307  1  0.58272000  0.10225000  0.83880000  1.0
  O  O308  1  0.05458000  0.64860000  0.58510000  1.0
  O  O309  1  0.10225000  0.58272000  0.66120000  1.0
  O  O310  1  0.94542000  0.35140000  0.58510000  1.0
  O  O311  1  0.89775000  0.41728000  0.66120000  1.0
  O  O312  1  0.64860000  0.94542000  0.08510000  1.0
  O  O313  1  0.58272000  0.89775000  0.16120000  1.0
  O  O314  1  0.35140000  0.05458000  0.08510000  1.0
  O  O315  1  0.41728000  0.10225000  0.16120000  1.0
  O  O316  1  0.00000000  0.44984000  0.61320000  1.0
  O  O317  1  0.00000000  0.55016000  0.61320000  1.0
  O  O318  1  0.55016000  0.00000000  0.11320000  1.0
  O  O319  1  0.44984000  0.00000000  0.11320000  1.0
  O  O320  1  0.00000000  0.44984000  0.38680000  1.0
  O  O321  1  0.00000000  0.55016000  0.38680000  1.0
  O  O322  1  0.44984000  0.00000000  0.88680000  1.0
  O  O323  1  0.55016000  0.00000000  0.88680000  1.0
  O  O324  1  0.07310000  0.45085000  0.50000000  1.0
  O  O325  1  0.92690000  0.54915000  0.50000000  1.0
  O  O326  1  0.54915000  0.07310000  0.00000000  1.0
  O  O327  1  0.45085000  0.92690000  0.00000000  1.0
  O  O328  1  0.92690000  0.45085000  0.50000000  1.0
  O  O329  1  0.07310000  0.54915000  0.50000000  1.0
  O  O330  1  0.45085000  0.07310000  0.00000000  1.0
  O  O331  1  0.54915000  0.92690000  0.00000000  1.0
