# generated using pymatgen
data_LaZn2H2C11(N2O5)2
_symmetry_space_group_name_H-M   'P 1'
_cell_length_a   9.80780000
_cell_length_b   13.18670000
_cell_length_c   16.79230000
_cell_angle_alpha   81.52160000
_cell_angle_beta   73.02040000
_cell_angle_gamma   68.16830000
_symmetry_Int_Tables_number   1
_chemical_formula_structural   LaZn2H2C11(N2O5)2
_chemical_formula_sum   'La4 Zn8 H8 C44 N16 O40'
_cell_volume   1926.30331780
_cell_formula_units_Z   4
loop_
 _symmetry_equiv_pos_site_id
 _symmetry_equiv_pos_as_xyz
  1  'x, y, z'
loop_
 _atom_site_type_symbol
 _atom_site_label
 _atom_site_symmetry_multiplicity
 _atom_site_fract_x
 _atom_site_fract_y
 _atom_site_fract_z
 _atom_site_occupancy
  La  La0  1  0.63209000  0.38801000  0.57397000  1.0
  La  La1  1  0.59407000  0.11199000  0.92603000  1.0
  La  La2  1  0.36791000  0.61199000  0.42603000  1.0
  La  La3  1  0.40593000  0.88801000  0.07397000  1.0
  Zn  Zn4  1  0.25493000  0.10873000  0.31575000  1.0
  Zn  Zn5  1  0.18193000  0.16126000  0.54290000  1.0
  Zn  Zn6  1  0.67941000  0.39127000  0.18425000  1.0
  Zn  Zn7  1  0.88609000  0.33874000  0.95710000  1.0
  Zn  Zn8  1  0.74507000  0.89127000  0.68425000  1.0
  Zn  Zn9  1  0.81807000  0.83874000  0.45710000  1.0
  Zn  Zn10  1  0.32059000  0.60873000  0.81575000  1.0
  Zn  Zn11  1  0.11391000  0.66126000  0.04290000  1.0
  H  H12  1  0.03070000  0.18830000  0.18330000  1.0
  H  H13  1  0.41200000  0.93490000  0.63030000  1.0
  H  H14  1  0.40230000  0.31170000  0.31670000  1.0
  H  H15  1  0.97720000  0.56510000  0.86970000  1.0
  H  H16  1  0.96930000  0.81170000  0.81670000  1.0
  H  H17  1  0.58800000  0.06510000  0.36970000  1.0
  H  H18  1  0.59770000  0.68830000  0.68330000  1.0
  H  H19  1  0.02280000  0.43490000  0.13030000  1.0
  C  C20  1  0.98680000  0.26850000  0.43470000  1.0
  C  C21  1  0.94570000  0.27310000  0.35570000  1.0
  C  C22  1  0.81760000  0.33280000  0.32680000  1.0
  C  C23  1  0.67340000  0.42150000  0.35710000  1.0
  C  C24  1  0.98350000  0.22400000  0.23320000  1.0
  C  C25  1  0.73330000  0.10410000  0.59430000  1.0
  C  C26  1  0.59850000  0.08510000  0.58870000  1.0
  C  C27  1  0.47340000  0.14520000  0.55880000  1.0
  C  C28  1  0.42040000  0.25440000  0.51900000  1.0
  C  C29  1  0.45090000  0.99110000  0.61250000  1.0
  C  C30  1  0.69000000  0.23150000  0.06530000  1.0
  C  C31  1  0.57450000  0.22690000  0.14430000  1.0
  C  C32  1  0.47720000  0.16720000  0.17320000  1.0
  C  C33  1  0.45200000  0.07850000  0.14290000  1.0
  C  C34  1  0.44070000  0.27600000  0.26680000  1.0
  C  C35  1  0.43170000  0.39590000  0.90570000  1.0
  C  C36  1  0.27230000  0.41490000  0.91130000  1.0
  C  C37  1  0.17740000  0.35480000  0.94120000  1.0
  C  C38  1  0.19380000  0.24560000  0.98100000  1.0
  C  C39  1  0.05450000  0.50890000  0.88750000  1.0
  C  C40  1  0.01320000  0.73150000  0.56530000  1.0
  C  C41  1  0.05430000  0.72690000  0.64430000  1.0
  C  C42  1  0.18240000  0.66720000  0.67320000  1.0
  C  C43  1  0.32660000  0.57850000  0.64290000  1.0
  C  C44  1  0.01650000  0.77600000  0.76680000  1.0
  C  C45  1  0.26670000  0.89590000  0.40570000  1.0
  C  C46  1  0.40150000  0.91490000  0.41130000  1.0
  C  C47  1  0.52660000  0.85480000  0.44120000  1.0
  C  C48  1  0.57960000  0.74560000  0.48100000  1.0
  C  C49  1  0.54910000  0.00890000  0.38750000  1.0
  C  C50  1  0.31000000  0.76850000  0.93470000  1.0
  C  C51  1  0.42550000  0.77310000  0.85570000  1.0
  C  C52  1  0.52280000  0.83280000  0.82680000  1.0
  C  C53  1  0.54800000  0.92150000  0.85710000  1.0
  C  C54  1  0.55930000  0.72400000  0.73320000  1.0
  C  C55  1  0.56830000  0.60410000  0.09430000  1.0
  C  C56  1  0.72770000  0.58510000  0.08870000  1.0
  C  C57  1  0.82260000  0.64520000  0.05880000  1.0
  C  C58  1  0.80620000  0.75440000  0.01900000  1.0
  C  C59  1  0.94550000  0.49110000  0.11250000  1.0
  C  C60  1  0.53460000  0.25000000  0.75000000  1.0
  C  C61  1  0.69340000  0.25000000  0.75000000  1.0
  C  C62  1  0.46540000  0.75000000  0.25000000  1.0
  C  C63  1  0.30660000  0.75000000  0.25000000  1.0
  N  N64  1  0.84570000  0.29990000  0.24770000  1.0
  N  N65  1  0.04860000  0.20360000  0.29600000  1.0
  N  N66  1  0.38140000  0.08350000  0.57390000  1.0
  N  N67  1  0.58230000  0.98800000  0.62280000  1.0
  N  N68  1  0.39330000  0.20010000  0.25230000  1.0
  N  N69  1  0.54820000  0.29640000  0.20400000  1.0
  N  N70  1  0.03880000  0.41650000  0.92610000  1.0
  N  N71  1  0.19310000  0.51200000  0.87720000  1.0
  N  N72  1  0.15430000  0.70010000  0.75230000  1.0
  N  N73  1  0.95140000  0.79640000  0.70400000  1.0
  N  N74  1  0.61860000  0.91650000  0.42610000  1.0
  N  N75  1  0.41770000  0.01200000  0.37720000  1.0
  N  N76  1  0.60670000  0.79990000  0.74770000  1.0
  N  N77  1  0.45180000  0.70360000  0.79600000  1.0
  N  N78  1  0.96120000  0.58350000  0.07390000  1.0
  N  N79  1  0.80690000  0.48800000  0.12280000  1.0
  O  O80  1  0.90470000  0.33350000  0.49090000  1.0
  O  O81  1  0.11450000  0.19500000  0.43920000  1.0
  O  O82  1  0.63910000  0.46400000  0.42720000  1.0
  O  O83  1  0.58260000  0.45810000  0.31110000  1.0
  O  O84  1  0.81780000  0.03050000  0.63430000  1.0
  O  O85  1  0.76120000  0.18820000  0.56140000  1.0
  O  O86  1  0.49130000  0.31900000  0.50740000  1.0
  O  O87  1  0.29890000  0.27880000  0.49680000  1.0
  O  O88  1  0.47820000  0.30400000  0.69260000  1.0
  O  O89  1  0.75114000  0.31412000  0.69620000  1.0
  O  O90  1  0.72910000  0.16650000  0.00910000  1.0
  O  O91  1  0.74870000  0.30500000  0.06080000  1.0
  O  O92  1  0.53030000  0.03600000  0.07280000  1.0
  O  O93  1  0.35180000  0.04190000  0.18890000  1.0
  O  O94  1  0.48260000  0.46950000  0.86570000  1.0
  O  O95  1  0.51080000  0.31180000  0.93860000  1.0
  O  O96  1  0.31770000  0.18100000  0.99260000  1.0
  O  O97  1  0.07450000  0.22120000  0.00320000  1.0
  O  O98  1  0.47480000  0.19600000  0.80740000  1.0
  O  O99  1  0.76146000  0.18588000  0.80380000  1.0
  O  O100  1  0.09530000  0.66650000  0.50910000  1.0
  O  O101  1  0.88550000  0.80500000  0.56080000  1.0
  O  O102  1  0.36090000  0.53600000  0.57280000  1.0
  O  O103  1  0.41740000  0.54190000  0.68890000  1.0
  O  O104  1  0.18220000  0.96950000  0.36570000  1.0
  O  O105  1  0.23880000  0.81180000  0.43860000  1.0
  O  O106  1  0.50870000  0.68100000  0.49260000  1.0
  O  O107  1  0.70110000  0.72120000  0.50320000  1.0
  O  O108  1  0.52180000  0.69600000  0.30740000  1.0
  O  O109  1  0.24886000  0.68588000  0.30380000  1.0
  O  O110  1  0.27090000  0.83350000  0.99090000  1.0
  O  O111  1  0.25130000  0.69500000  0.93920000  1.0
  O  O112  1  0.46970000  0.96400000  0.92720000  1.0
  O  O113  1  0.64820000  0.95810000  0.81110000  1.0
  O  O114  1  0.51740000  0.53050000  0.13430000  1.0
  O  O115  1  0.48920000  0.68820000  0.06140000  1.0
  O  O116  1  0.68230000  0.81900000  0.00740000  1.0
  O  O117  1  0.92550000  0.77880000  0.99680000  1.0
  O  O118  1  0.52520000  0.80400000  0.19260000  1.0
  O  O119  1  0.23854000  0.81412000  0.19620000  1.0
