# generated using pymatgen
data_NdZn2H2C11(N2O5)2
_symmetry_space_group_name_H-M   'P 1'
_cell_length_a   9.82140000
_cell_length_b   13.19940000
_cell_length_c   16.61150000
_cell_angle_alpha   81.35270000
_cell_angle_beta   72.80530000
_cell_angle_gamma   68.15860000
_symmetry_Int_Tables_number   1
_chemical_formula_structural   NdZn2H2C11(N2O5)2
_chemical_formula_sum   'Nd4 Zn8 H8 C44 N16 O40'
_cell_volume   1907.55870083
_cell_formula_units_Z   4
loop_
 _symmetry_equiv_pos_site_id
 _symmetry_equiv_pos_as_xyz
  1  'x, y, z'
loop_
 _atom_site_type_symbol
 _atom_site_label
 _atom_site_symmetry_multiplicity
 _atom_site_fract_x
 _atom_site_fract_y
 _atom_site_fract_z
 _atom_site_occupancy
  Nd  Nd0  1  0.62844000  0.38400000  0.57350000  1.0
  Nd  Nd1  1  0.58594000  0.11600000  0.92650000  1.0
  Nd  Nd2  1  0.37156000  0.61600000  0.42650000  1.0
  Nd  Nd3  1  0.41406000  0.88400000  0.07350000  1.0
  Zn  Zn4  1  0.25010000  0.10961000  0.31669000  1.0
  Zn  Zn5  1  0.18080000  0.16040000  0.54452000  1.0
  Zn  Zn6  1  0.67640000  0.39039000  0.18331000  1.0
  Zn  Zn7  1  0.88572000  0.33960000  0.95548000  1.0
  Zn  Zn8  1  0.74990000  0.89039000  0.68331000  1.0
  Zn  Zn9  1  0.81920000  0.83960000  0.45548000  1.0
  Zn  Zn10  1  0.32360000  0.60961000  0.81669000  1.0
  Zn  Zn11  1  0.11428000  0.66040000  0.04452000  1.0
  H  H12  1  0.02480000  0.18640000  0.18380000  1.0
  H  H13  1  0.41300000  0.93230000  0.63050000  1.0
  H  H14  1  0.39500000  0.31360000  0.31620000  1.0
  H  H15  1  0.97580000  0.56770000  0.86950000  1.0
  H  H16  1  0.97520000  0.81360000  0.81620000  1.0
  H  H17  1  0.58700000  0.06770000  0.36950000  1.0
  H  H18  1  0.60500000  0.68640000  0.68380000  1.0
  H  H19  1  0.02420000  0.43230000  0.13050000  1.0
  C  C20  1  0.97990000  0.27000000  0.43700000  1.0
  C  C21  1  0.93820000  0.27300000  0.35800000  1.0
  C  C22  1  0.81200000  0.33270000  0.32770000  1.0
  C  C23  1  0.66810000  0.42350000  0.35790000  1.0
  C  C24  1  0.97760000  0.22290000  0.23390000  1.0
  C  C25  1  0.73400000  0.10270000  0.59290000  1.0
  C  C26  1  0.59810000  0.08350000  0.58890000  1.0
  C  C27  1  0.47220000  0.14380000  0.55980000  1.0
  C  C28  1  0.41950000  0.25380000  0.51920000  1.0
  C  C29  1  0.45140000  0.98890000  0.61270000  1.0
  C  C30  1  0.68690000  0.23000000  0.06300000  1.0
  C  C31  1  0.56920000  0.22700000  0.14200000  1.0
  C  C32  1  0.47240000  0.16730000  0.17230000  1.0
  C  C33  1  0.44950000  0.07650000  0.14210000  1.0
  C  C34  1  0.43440000  0.27710000  0.26610000  1.0
  C  C35  1  0.42960000  0.39730000  0.90710000  1.0
  C  C36  1  0.27050000  0.41650000  0.91110000  1.0
  C  C37  1  0.17580000  0.35620000  0.94020000  1.0
  C  C38  1  0.19250000  0.24620000  0.98080000  1.0
  C  C39  1  0.05300000  0.51110000  0.88730000  1.0
  C  C40  1  0.02010000  0.73000000  0.56300000  1.0
  C  C41  1  0.06180000  0.72700000  0.64200000  1.0
  C  C42  1  0.18800000  0.66730000  0.67230000  1.0
  C  C43  1  0.33190000  0.57650000  0.64210000  1.0
  C  C44  1  0.02240000  0.77710000  0.76610000  1.0
  C  C45  1  0.26600000  0.89730000  0.40710000  1.0
  C  C46  1  0.40190000  0.91650000  0.41110000  1.0
  C  C47  1  0.52780000  0.85620000  0.44020000  1.0
  C  C48  1  0.58050000  0.74620000  0.48080000  1.0
  C  C49  1  0.54860000  0.01110000  0.38730000  1.0
  C  C50  1  0.31310000  0.77000000  0.93700000  1.0
  C  C51  1  0.43080000  0.77300000  0.85800000  1.0
  C  C52  1  0.52760000  0.83270000  0.82770000  1.0
  C  C53  1  0.55050000  0.92350000  0.85790000  1.0
  C  C54  1  0.56560000  0.72290000  0.73390000  1.0
  C  C55  1  0.57040000  0.60270000  0.09290000  1.0
  C  C56  1  0.72950000  0.58350000  0.08890000  1.0
  C  C57  1  0.82420000  0.64380000  0.05980000  1.0
  C  C58  1  0.80750000  0.75380000  0.01920000  1.0
  C  C59  1  0.94700000  0.48890000  0.11270000  1.0
  C  C60  1  0.53010000  0.25000000  0.75000000  1.0
  C  C61  1  0.68770000  0.25000000  0.75000000  1.0
  C  C62  1  0.46990000  0.75000000  0.25000000  1.0
  C  C63  1  0.31230000  0.75000000  0.25000000  1.0
  N  N64  1  0.83931000  0.29868000  0.24850000  1.0
  N  N65  1  0.04251000  0.20398000  0.29680000  1.0
  N  N66  1  0.38019000  0.08262000  0.57480000  1.0
  N  N67  1  0.58387000  0.98536000  0.62210000  1.0
  N  N68  1  0.38649000  0.20132000  0.25150000  1.0
  N  N69  1  0.54329000  0.29602000  0.20320000  1.0
  N  N70  1  0.03761000  0.41738000  0.92520000  1.0
  N  N71  1  0.19133000  0.51464000  0.87790000  1.0
  N  N72  1  0.16069000  0.70132000  0.75150000  1.0
  N  N73  1  0.95749000  0.79602000  0.70320000  1.0
  N  N74  1  0.61981000  0.91738000  0.42520000  1.0
  N  N75  1  0.41613000  0.01464000  0.37790000  1.0
  N  N76  1  0.61351000  0.79868000  0.74850000  1.0
  N  N77  1  0.45671000  0.70398000  0.79680000  1.0
  N  N78  1  0.96239000  0.58262000  0.07480000  1.0
  N  N79  1  0.80867000  0.48536000  0.12210000  1.0
  O  O80  1  0.89694000  0.33340000  0.49392000  1.0
  O  O81  1  0.10855000  0.19770000  0.44060000  1.0
  O  O82  1  0.63382000  0.46436000  0.42880000  1.0
  O  O83  1  0.58082000  0.46161000  0.30995000  1.0
  O  O84  1  0.82047000  0.02866000  0.63080000  1.0
  O  O85  1  0.75809000  0.18852000  0.56130000  1.0
  O  O86  1  0.49027000  0.31806000  0.50820000  1.0
  O  O87  1  0.29715000  0.27850000  0.49780000  1.0
  O  O88  1  0.47408000  0.30408000  0.69176000  1.0
  O  O89  1  0.74197000  0.31156000  0.69550000  1.0
  O  O90  1  0.72426000  0.16660000  0.00608000  1.0
  O  O91  1  0.74685000  0.30230000  0.05940000  1.0
  O  O92  1  0.52698000  0.03564000  0.07120000  1.0
  O  O93  1  0.35238000  0.03839000  0.19005000  1.0
  O  O94  1  0.47993000  0.47134000  0.86920000  1.0
  O  O95  1  0.50791000  0.31148000  0.93870000  1.0
  O  O96  1  0.31653000  0.18194000  0.99180000  1.0
  O  O97  1  0.07345000  0.22150000  0.00220000  1.0
  O  O98  1  0.46992000  0.19592000  0.80824000  1.0
  O  O99  1  0.74903000  0.18844000  0.80450000  1.0
  O  O100  1  0.10306000  0.66666667  0.50608000  1.0
  O  O101  1  0.89145000  0.80230000  0.55940000  1.0
  O  O102  1  0.36618000  0.53564000  0.57120000  1.0
  O  O103  1  0.41918000  0.53839000  0.69005000  1.0
  O  O104  1  0.17953000  0.97134000  0.36920000  1.0
  O  O105  1  0.24191000  0.81148000  0.43870000  1.0
  O  O106  1  0.50973000  0.68194000  0.49180000  1.0
  O  O107  1  0.70285000  0.72150000  0.50220000  1.0
  O  O108  1  0.52592000  0.69592000  0.30824000  1.0
  O  O109  1  0.25803000  0.68844000  0.30450000  1.0
  O  O110  1  0.27574000  0.83340000  0.99392000  1.0
  O  O111  1  0.25315000  0.69770000  0.94060000  1.0
  O  O112  1  0.47302000  0.96436000  0.92880000  1.0
  O  O113  1  0.64762000  0.96161000  0.80995000  1.0
  O  O114  1  0.52007000  0.52866000  0.13080000  1.0
  O  O115  1  0.49209000  0.68852000  0.06130000  1.0
  O  O116  1  0.68347000  0.81806000  0.00820000  1.0
  O  O117  1  0.92655000  0.77850000  0.99780000  1.0
  O  O118  1  0.53008000  0.80408000  0.19176000  1.0
  O  O119  1  0.25097000  0.81156000  0.19550000  1.0
