# generated using pymatgen
data_SmZn2H2C11(N2O5)2
_symmetry_space_group_name_H-M   'P 1'
_cell_length_a   9.84380000
_cell_length_b   13.20670000
_cell_length_c   16.49190000
_cell_angle_alpha   81.12080000
_cell_angle_beta   72.63580000
_cell_angle_gamma   68.11880000
_symmetry_Int_Tables_number   1
_chemical_formula_structural   SmZn2H2C11(N2O5)2
_chemical_formula_sum   'Sm4 Zn8 H8 C44 N16 O40'
_cell_volume   1896.63435429
_cell_formula_units_Z   4
loop_
 _symmetry_equiv_pos_site_id
 _symmetry_equiv_pos_as_xyz
  1  'x, y, z'
loop_
 _atom_site_type_symbol
 _atom_site_label
 _atom_site_symmetry_multiplicity
 _atom_site_fract_x
 _atom_site_fract_y
 _atom_site_fract_z
 _atom_site_occupancy
  Sm  Sm0  1  0.62669000  0.38190000  0.57286000  1.0
  Sm  Sm1  1  0.58145000  0.11810000  0.92714000  1.0
  Sm  Sm2  1  0.37331000  0.61810000  0.42714000  1.0
  Sm  Sm3  1  0.41855000  0.88190000  0.07286000  1.0
  Zn  Zn4  1  0.24719000  0.11040000  0.31780000  1.0
  Zn  Zn5  1  0.17970000  0.16051000  0.54571000  1.0
  Zn  Zn6  1  0.67539000  0.38960000  0.18220000  1.0
  Zn  Zn7  1  0.88592000  0.33949000  0.95429000  1.0
  Zn  Zn8  1  0.75281000  0.88960000  0.68220000  1.0
  Zn  Zn9  1  0.82030000  0.83949000  0.45429000  1.0
  Zn  Zn10  1  0.32461000  0.61040000  0.81780000  1.0
  Zn  Zn11  1  0.11408000  0.66051000  0.04571000  1.0
  H  H12  1  0.02250000  0.18530000  0.18330000  1.0
  H  H13  1  0.41580000  0.93010000  0.62990000  1.0
  H  H14  1  0.39110000  0.31470000  0.31670000  1.0
  H  H15  1  0.97580000  0.56990000  0.87010000  1.0
  H  H16  1  0.97750000  0.81470000  0.81670000  1.0
  H  H17  1  0.58420000  0.06990000  0.37010000  1.0
  H  H18  1  0.60890000  0.68530000  0.68330000  1.0
  H  H19  1  0.02420000  0.43010000  0.12990000  1.0
  C  C20  1  0.97760000  0.27040000  0.43780000  1.0
  C  C21  1  0.93560000  0.27280000  0.35840000  1.0
  C  C22  1  0.80970000  0.33250000  0.32810000  1.0
  C  C23  1  0.66640000  0.42420000  0.35740000  1.0
  C  C24  1  0.97510000  0.22190000  0.23370000  1.0
  C  C25  1  0.73330000  0.10260000  0.59140000  1.0
  C  C26  1  0.59750000  0.08280000  0.58820000  1.0
  C  C27  1  0.47060000  0.14340000  0.56020000  1.0
  C  C28  1  0.41750000  0.25420000  0.51960000  1.0
  C  C29  1  0.45290000  0.98740000  0.61240000  1.0
  C  C30  1  0.68580000  0.22960000  0.06220000  1.0
  C  C31  1  0.56680000  0.22720000  0.14160000  1.0
  C  C32  1  0.47030000  0.16750000  0.17190000  1.0
  C  C33  1  0.44800000  0.07580000  0.14260000  1.0
  C  C34  1  0.43070000  0.27810000  0.26630000  1.0
  C  C35  1  0.42730000  0.39740000  0.90860000  1.0
  C  C36  1  0.26850000  0.41720000  0.91180000  1.0
  C  C37  1  0.17420000  0.35660000  0.93980000  1.0
  C  C38  1  0.19130000  0.24580000  0.98040000  1.0
  C  C39  1  0.05270000  0.51260000  0.88760000  1.0
  C  C40  1  0.02240000  0.72960000  0.56220000  1.0
  C  C41  1  0.06440000  0.72720000  0.64160000  1.0
  C  C42  1  0.19030000  0.66750000  0.67190000  1.0
  C  C43  1  0.33360000  0.57580000  0.64260000  1.0
  C  C44  1  0.02490000  0.77810000  0.76630000  1.0
  C  C45  1  0.26670000  0.89740000  0.40860000  1.0
  C  C46  1  0.40250000  0.91720000  0.41180000  1.0
  C  C47  1  0.52940000  0.85660000  0.43980000  1.0
  C  C48  1  0.58250000  0.74580000  0.48040000  1.0
  C  C49  1  0.54710000  0.01260000  0.38760000  1.0
  C  C50  1  0.31420000  0.77040000  0.93780000  1.0
  C  C51  1  0.43320000  0.77280000  0.85840000  1.0
  C  C52  1  0.52970000  0.83250000  0.82810000  1.0
  C  C53  1  0.55200000  0.92420000  0.85740000  1.0
  C  C54  1  0.56930000  0.72190000  0.73370000  1.0
  C  C55  1  0.57270000  0.60260000  0.09140000  1.0
  C  C56  1  0.73150000  0.58280000  0.08820000  1.0
  C  C57  1  0.82580000  0.64340000  0.06020000  1.0
  C  C58  1  0.80870000  0.75420000  0.01960000  1.0
  C  C59  1  0.94730000  0.48740000  0.11240000  1.0
  C  C60  1  0.52700000  0.25000000  0.75000000  1.0
  C  C61  1  0.68520000  0.25000000  0.75000000  1.0
  C  C62  1  0.47300000  0.75000000  0.25000000  1.0
  C  C63  1  0.31480000  0.75000000  0.25000000  1.0
  N  N64  1  0.83663000  0.29774000  0.24840000  1.0
  N  N65  1  0.03936000  0.20338000  0.29750000  1.0
  N  N66  1  0.37894000  0.08172000  0.57580000  1.0
  N  N67  1  0.58528000  0.98424000  0.62120000  1.0
  N  N68  1  0.38277000  0.20226000  0.25160000  1.0
  N  N69  1  0.54024000  0.29662000  0.20250000  1.0
  N  N70  1  0.03646000  0.41828000  0.92420000  1.0
  N  N71  1  0.19072000  0.51576000  0.87880000  1.0
  N  N72  1  0.16337000  0.70226000  0.75160000  1.0
  N  N73  1  0.96064000  0.79662000  0.70250000  1.0
  N  N74  1  0.62106000  0.91828000  0.42420000  1.0
  N  N75  1  0.41472000  0.01576000  0.37880000  1.0
  N  N76  1  0.61723000  0.79774000  0.74840000  1.0
  N  N77  1  0.45976000  0.70338000  0.79750000  1.0
  N  N78  1  0.96354000  0.58172000  0.07580000  1.0
  N  N79  1  0.80928000  0.48424000  0.12120000  1.0
  O  O80  1  0.89290000  0.33385000  0.49515000  1.0
  O  O81  1  0.10600000  0.19920000  0.44140000  1.0
  O  O82  1  0.63013000  0.46496000  0.42958000  1.0
  O  O83  1  0.58118000  0.46344000  0.30860000  1.0
  O  O84  1  0.82234000  0.02772000  0.62800000  1.0
  O  O85  1  0.75567000  0.18956000  0.56050000  1.0
  O  O86  1  0.48873000  0.31814000  0.50880000  1.0
  O  O87  1  0.29553000  0.27894000  0.49820000  1.0
  O  O88  1  0.47251000  0.30408000  0.69110000  1.0
  O  O89  1  0.73750000  0.31012000  0.69488000  1.0
  O  O90  1  0.72190000  0.16615000  0.00485000  1.0
  O  O91  1  0.74660000  0.30080000  0.05860000  1.0
  O  O92  1  0.52467000  0.03504000  0.07042000  1.0
  O  O93  1  0.35322000  0.03656000  0.19140000  1.0
  O  O94  1  0.47806000  0.47228000  0.87200000  1.0
  O  O95  1  0.50573000  0.31044000  0.93950000  1.0
  O  O96  1  0.31567000  0.18186000  0.99120000  1.0
  O  O97  1  0.07267000  0.22106000  0.00180000  1.0
  O  O98  1  0.46769000  0.19592000  0.80890000  1.0
  O  O99  1  0.74250000  0.18988000  0.80512000  1.0
  O  O100  1  0.10710000  0.66615000  0.50485000  1.0
  O  O101  1  0.89400000  0.80080000  0.55860000  1.0
  O  O102  1  0.36987000  0.53504000  0.57042000  1.0
  O  O103  1  0.41882000  0.53656000  0.69140000  1.0
  O  O104  1  0.17766000  0.97228000  0.37200000  1.0
  O  O105  1  0.24433000  0.81044000  0.43950000  1.0
  O  O106  1  0.51127000  0.68186000  0.49120000  1.0
  O  O107  1  0.70447000  0.72106000  0.50180000  1.0
  O  O108  1  0.52749000  0.69592000  0.30890000  1.0
  O  O109  1  0.26250000  0.68988000  0.30512000  1.0
  O  O110  1  0.27810000  0.83385000  0.99515000  1.0
  O  O111  1  0.25340000  0.69920000  0.94140000  1.0
  O  O112  1  0.47533000  0.96496000  0.92958000  1.0
  O  O113  1  0.64678000  0.96344000  0.80860000  1.0
  O  O114  1  0.52194000  0.52772000  0.12800000  1.0
  O  O115  1  0.49427000  0.68956000  0.06050000  1.0
  O  O116  1  0.68433000  0.81814000  0.00880000  1.0
  O  O117  1  0.92733000  0.77894000  0.99820000  1.0
  O  O118  1  0.53231000  0.80408000  0.19110000  1.0
  O  O119  1  0.25750000  0.81012000  0.19488000  1.0
