# generated using pymatgen
data_CdH28C21(NO)6
_symmetry_space_group_name_H-M   'P 1'
_cell_length_a   30.35300000
_cell_length_b   4.85950000
_cell_length_c   18.32300000
_cell_angle_alpha   90.00000000
_cell_angle_beta   118.12300000
_cell_angle_gamma   90.00000000
_symmetry_Int_Tables_number   1
_chemical_formula_structural   CdH28C21(NO)6
_chemical_formula_sum   'Cd4 H112 C84 N24 O24'
_cell_volume   2383.56888126
_cell_formula_units_Z   4
loop_
 _symmetry_equiv_pos_site_id
 _symmetry_equiv_pos_as_xyz
  1  'x, y, z'
loop_
 _atom_site_type_symbol
 _atom_site_label
 _atom_site_symmetry_multiplicity
 _atom_site_fract_x
 _atom_site_fract_y
 _atom_site_fract_z
 _atom_site_occupancy
  Cd  Cd0  1  0.75938000  0.78000000  0.08613000  1.0
  Cd  Cd1  1  0.25938000  0.28000000  0.08613000  1.0
  Cd  Cd2  1  0.24062000  0.78000000  0.91387000  1.0
  Cd  Cd3  1  0.74062000  0.28000000  0.91387000  1.0
  H  H4  1  0.87620000  0.95060000  0.13640000  1.0
  H  H5  1  0.89620000  0.15860000  0.04180000  1.0
  H  H6  1  0.91220000  0.43140000  0.09360000  1.0
  H  H7  1  0.96510000  0.92770000  0.14010000  1.0
  H  H8  1  0.98470000  0.20130000  0.11990000  1.0
  H  H9  1  0.97710000  0.16800000  0.33060000  1.0
  H  H10  1  0.95830000  0.91240000  0.27120000  1.0
  H  H11  1  0.88870000  0.16580000  0.25800000  1.0
  H  H12  1  0.90920000  0.43150000  0.23530000  1.0
  H  H13  1  0.12300000  0.00090000  0.63220000  1.0
  H  H14  1  0.18240000  0.71410000  0.57530000  1.0
  H  H15  1  0.18920000  0.02400000  0.60250000  1.0
  H  H16  1  0.11470000  0.14550000  0.48580000  1.0
  H  H17  1  0.14650000  0.97580000  0.45420000  1.0
  H  H18  1  0.03690000  0.56240000  0.46410000  1.0
  H  H19  1  0.04120000  0.87330000  0.49000000  1.0
  H  H20  1  0.07500000  0.62120000  0.61050000  1.0
  H  H21  1  0.10810000  0.44940000  0.58250000  1.0
  H  H22  1  0.14960000  0.03600000  0.09990000  1.0
  H  H23  1  0.12300000  0.49630000  0.11250000  1.0
  H  H24  1  0.09870000  0.68430000  0.03390000  1.0
  H  H25  1  0.05820000  0.94090000  0.08720000  1.0
  H  H26  1  0.04850000  0.63260000  0.10070000  1.0
  H  H27  1  0.14750000  0.02220000  0.29920000  1.0
  H  H28  1  0.12480000  0.19350000  0.21670000  1.0
  H  H29  1  0.19160000  0.74140000  0.25300000  1.0
  H  H30  1  0.20410000  0.04690000  0.24210000  1.0
  H  H31  1  0.20920000  0.46380000  0.69640000  1.0
  H  H32  1  0.37620000  0.45060000  0.13640000  1.0
  H  H33  1  0.39620000  0.65860000  0.04180000  1.0
  H  H34  1  0.41220000  0.93140000  0.09360000  1.0
  H  H35  1  0.46510000  0.42770000  0.14010000  1.0
  H  H36  1  0.48470000  0.70130000  0.11990000  1.0
  H  H37  1  0.47710000  0.66800000  0.33060000  1.0
  H  H38  1  0.45830000  0.41240000  0.27120000  1.0
  H  H39  1  0.38870000  0.66580000  0.25800000  1.0
  H  H40  1  0.40920000  0.93150000  0.23530000  1.0
  H  H41  1  0.62300000  0.50090000  0.63220000  1.0
  H  H42  1  0.68240000  0.21410000  0.57530000  1.0
  H  H43  1  0.68920000  0.52400000  0.60250000  1.0
  H  H44  1  0.61470000  0.64550000  0.48580000  1.0
  H  H45  1  0.64650000  0.47580000  0.45420000  1.0
  H  H46  1  0.53690000  0.06240000  0.46410000  1.0
  H  H47  1  0.54120000  0.37330000  0.49000000  1.0
  H  H48  1  0.57500000  0.12120000  0.61050000  1.0
  H  H49  1  0.60810000  0.94940000  0.58250000  1.0
  H  H50  1  0.64960000  0.53600000  0.09990000  1.0
  H  H51  1  0.62300000  0.99630000  0.11250000  1.0
  H  H52  1  0.59870000  0.18430000  0.03390000  1.0
  H  H53  1  0.55820000  0.44090000  0.08720000  1.0
  H  H54  1  0.54850000  0.13260000  0.10070000  1.0
  H  H55  1  0.64750000  0.52220000  0.29920000  1.0
  H  H56  1  0.62480000  0.69350000  0.21670000  1.0
  H  H57  1  0.69160000  0.24140000  0.25300000  1.0
  H  H58  1  0.70410000  0.54690000  0.24210000  1.0
  H  H59  1  0.70920000  0.96380000  0.69640000  1.0
  H  H60  1  0.12380000  0.95060000  0.86360000  1.0
  H  H61  1  0.10380000  0.15860000  0.95820000  1.0
  H  H62  1  0.08780000  0.43140000  0.90640000  1.0
  H  H63  1  0.03490000  0.92770000  0.85990000  1.0
  H  H64  1  0.01530000  0.20130000  0.88010000  1.0
  H  H65  1  0.02290000  0.16800000  0.66940000  1.0
  H  H66  1  0.04170000  0.91240000  0.72880000  1.0
  H  H67  1  0.11130000  0.16580000  0.74200000  1.0
  H  H68  1  0.09080000  0.43150000  0.76470000  1.0
  H  H69  1  0.87700000  0.00090000  0.36780000  1.0
  H  H70  1  0.81760000  0.71410000  0.42470000  1.0
  H  H71  1  0.81080000  0.02400000  0.39750000  1.0
  H  H72  1  0.88530000  0.14550000  0.51420000  1.0
  H  H73  1  0.85350000  0.97580000  0.54580000  1.0
  H  H74  1  0.96310000  0.56240000  0.53590000  1.0
  H  H75  1  0.95880000  0.87330000  0.51000000  1.0
  H  H76  1  0.92500000  0.62120000  0.38950000  1.0
  H  H77  1  0.89190000  0.44940000  0.41750000  1.0
  H  H78  1  0.85040000  0.03600000  0.90010000  1.0
  H  H79  1  0.87700000  0.49630000  0.88750000  1.0
  H  H80  1  0.90130000  0.68430000  0.96610000  1.0
  H  H81  1  0.94180000  0.94090000  0.91280000  1.0
  H  H82  1  0.95150000  0.63260000  0.89930000  1.0
  H  H83  1  0.85250000  0.02220000  0.70080000  1.0
  H  H84  1  0.87520000  0.19350000  0.78330000  1.0
  H  H85  1  0.80840000  0.74140000  0.74700000  1.0
  H  H86  1  0.79590000  0.04690000  0.75790000  1.0
  H  H87  1  0.79080000  0.46380000  0.30360000  1.0
  H  H88  1  0.62380000  0.45060000  0.86360000  1.0
  H  H89  1  0.60380000  0.65860000  0.95820000  1.0
  H  H90  1  0.58780000  0.93140000  0.90640000  1.0
  H  H91  1  0.53490000  0.42770000  0.85990000  1.0
  H  H92  1  0.51530000  0.70130000  0.88010000  1.0
  H  H93  1  0.52290000  0.66800000  0.66940000  1.0
  H  H94  1  0.54170000  0.41240000  0.72880000  1.0
  H  H95  1  0.61130000  0.66580000  0.74200000  1.0
  H  H96  1  0.59080000  0.93150000  0.76470000  1.0
  H  H97  1  0.37700000  0.50090000  0.36780000  1.0
  H  H98  1  0.31760000  0.21410000  0.42470000  1.0
  H  H99  1  0.31080000  0.52400000  0.39750000  1.0
  H  H100  1  0.38530000  0.64550000  0.51420000  1.0
  H  H101  1  0.35350000  0.47580000  0.54580000  1.0
  H  H102  1  0.46310000  0.06240000  0.53590000  1.0
  H  H103  1  0.45880000  0.37330000  0.51000000  1.0
  H  H104  1  0.42500000  0.12120000  0.38950000  1.0
  H  H105  1  0.39190000  0.94940000  0.41750000  1.0
  H  H106  1  0.35040000  0.53600000  0.90010000  1.0
  H  H107  1  0.37700000  0.99630000  0.88750000  1.0
  H  H108  1  0.40130000  0.18430000  0.96610000  1.0
  H  H109  1  0.44180000  0.44090000  0.91280000  1.0
  H  H110  1  0.45150000  0.13260000  0.89930000  1.0
  H  H111  1  0.35250000  0.52220000  0.70080000  1.0
  H  H112  1  0.37520000  0.69350000  0.78330000  1.0
  H  H113  1  0.30840000  0.24140000  0.74700000  1.0
  H  H114  1  0.29590000  0.54690000  0.75790000  1.0
  H  H115  1  0.29080000  0.96380000  0.30360000  1.0
  C  C116  1  0.82870000  0.28800000  0.09230000  1.0
  C  C117  1  0.88060000  0.15100000  0.14010000  1.0
  C  C118  1  0.91180000  0.23200000  0.09750000  1.0
  C  C119  1  0.96500000  0.12700000  0.14450000  1.0
  C  C120  1  0.96010000  0.11200000  0.27310000  1.0
  C  C121  1  0.90730000  0.23300000  0.23070000  1.0
  C  C122  1  0.02170000  0.40700000  0.26230000  1.0
  C  C123  1  0.07430000  0.67500000  0.37100000  1.0
  C  C124  1  0.07540000  0.70100000  0.25000000  1.0
  C  C125  1  0.17560000  0.73400000  0.71260000  1.0
  C  C126  1  0.13700000  0.82600000  0.62640000  1.0
  C  C127  1  0.16470000  0.87900000  0.57600000  1.0
  C  C128  1  0.12860000  0.96500000  0.48610000  1.0
  C  C129  1  0.06030000  0.71100000  0.49170000  1.0
  C  C130  1  0.09460000  0.63100000  0.58140000  1.0
  C  C131  1  0.20020000  0.73500000  0.11690000  1.0
  C  C132  1  0.15840000  0.85800000  0.12850000  1.0
  C  C133  1  0.11320000  0.68400000  0.09370000  1.0
  C  C134  1  0.07400000  0.77400000  0.11700000  1.0
  C  C135  1  0.13560000  0.01200000  0.24000000  1.0
  C  C136  1  0.17770000  0.91000000  0.22270000  1.0
  C  C137  1  0.32870000  0.78800000  0.09230000  1.0
  C  C138  1  0.38060000  0.65100000  0.14010000  1.0
  C  C139  1  0.41180000  0.73200000  0.09750000  1.0
  C  C140  1  0.46500000  0.62700000  0.14450000  1.0
  C  C141  1  0.46010000  0.61200000  0.27310000  1.0
  C  C142  1  0.40730000  0.73300000  0.23070000  1.0
  C  C143  1  0.52170000  0.90700000  0.26230000  1.0
  C  C144  1  0.57430000  0.17500000  0.37100000  1.0
  C  C145  1  0.57540000  0.20100000  0.25000000  1.0
  C  C146  1  0.67560000  0.23400000  0.71260000  1.0
  C  C147  1  0.63700000  0.32600000  0.62640000  1.0
  C  C148  1  0.66470000  0.37900000  0.57600000  1.0
  C  C149  1  0.62860000  0.46500000  0.48610000  1.0
  C  C150  1  0.56030000  0.21100000  0.49170000  1.0
  C  C151  1  0.59460000  0.13100000  0.58140000  1.0
  C  C152  1  0.70020000  0.23500000  0.11690000  1.0
  C  C153  1  0.65840000  0.35800000  0.12850000  1.0
  C  C154  1  0.61320000  0.18400000  0.09370000  1.0
  C  C155  1  0.57400000  0.27400000  0.11700000  1.0
  C  C156  1  0.63560000  0.51200000  0.24000000  1.0
  C  C157  1  0.67770000  0.41000000  0.22270000  1.0
  C  C158  1  0.17130000  0.28800000  0.90770000  1.0
  C  C159  1  0.11940000  0.15100000  0.85990000  1.0
  C  C160  1  0.08820000  0.23200000  0.90250000  1.0
  C  C161  1  0.03500000  0.12700000  0.85550000  1.0
  C  C162  1  0.03990000  0.11200000  0.72690000  1.0
  C  C163  1  0.09270000  0.23300000  0.76930000  1.0
  C  C164  1  0.97830000  0.40700000  0.73770000  1.0
  C  C165  1  0.92570000  0.67500000  0.62900000  1.0
  C  C166  1  0.92460000  0.70100000  0.75000000  1.0
  C  C167  1  0.82440000  0.73400000  0.28740000  1.0
  C  C168  1  0.86300000  0.82600000  0.37360000  1.0
  C  C169  1  0.83530000  0.87900000  0.42400000  1.0
  C  C170  1  0.87140000  0.96500000  0.51390000  1.0
  C  C171  1  0.93970000  0.71100000  0.50830000  1.0
  C  C172  1  0.90540000  0.63100000  0.41860000  1.0
  C  C173  1  0.79980000  0.73500000  0.88310000  1.0
  C  C174  1  0.84160000  0.85800000  0.87150000  1.0
  C  C175  1  0.88680000  0.68400000  0.90630000  1.0
  C  C176  1  0.92600000  0.77400000  0.88300000  1.0
  C  C177  1  0.86440000  0.01200000  0.76000000  1.0
  C  C178  1  0.82230000  0.91000000  0.77730000  1.0
  C  C179  1  0.67130000  0.78800000  0.90770000  1.0
  C  C180  1  0.61940000  0.65100000  0.85990000  1.0
  C  C181  1  0.58820000  0.73200000  0.90250000  1.0
  C  C182  1  0.53500000  0.62700000  0.85550000  1.0
  C  C183  1  0.53990000  0.61200000  0.72690000  1.0
  C  C184  1  0.59270000  0.73300000  0.76930000  1.0
  C  C185  1  0.47830000  0.90700000  0.73770000  1.0
  C  C186  1  0.42570000  0.17500000  0.62900000  1.0
  C  C187  1  0.42460000  0.20100000  0.75000000  1.0
  C  C188  1  0.32440000  0.23400000  0.28740000  1.0
  C  C189  1  0.36300000  0.32600000  0.37360000  1.0
  C  C190  1  0.33530000  0.37900000  0.42400000  1.0
  C  C191  1  0.37140000  0.46500000  0.51390000  1.0
  C  C192  1  0.43970000  0.21100000  0.50830000  1.0
  C  C193  1  0.40540000  0.13100000  0.41860000  1.0
  C  C194  1  0.29980000  0.23500000  0.88310000  1.0
  C  C195  1  0.34160000  0.35800000  0.87150000  1.0
  C  C196  1  0.38680000  0.18400000  0.90630000  1.0
  C  C197  1  0.42600000  0.27400000  0.88300000  1.0
  C  C198  1  0.36440000  0.51200000  0.76000000  1.0
  C  C199  1  0.32230000  0.41000000  0.77730000  1.0
  N  N200  1  0.98780000  0.20600000  0.23200000  1.0
  N  N201  1  0.03560000  0.49300000  0.34060000  1.0
  N  N202  1  0.09640000  0.77100000  0.33070000  1.0
  N  N203  1  0.03970000  0.51400000  0.21310000  1.0
  N  N204  1  0.08870000  0.76600000  0.44920000  1.0
  N  N205  1  0.09490000  0.82200000  0.20350000  1.0
  N  N206  1  0.48780000  0.70600000  0.23200000  1.0
  N  N207  1  0.53560000  0.99300000  0.34060000  1.0
  N  N208  1  0.59640000  0.27100000  0.33070000  1.0
  N  N209  1  0.53970000  0.01400000  0.21310000  1.0
  N  N210  1  0.58870000  0.26600000  0.44920000  1.0
  N  N211  1  0.59490000  0.32200000  0.20350000  1.0
  N  N212  1  0.01220000  0.20600000  0.76800000  1.0
  N  N213  1  0.96440000  0.49300000  0.65940000  1.0
  N  N214  1  0.90360000  0.77100000  0.66930000  1.0
  N  N215  1  0.96030000  0.51400000  0.78690000  1.0
  N  N216  1  0.91130000  0.76600000  0.55080000  1.0
  N  N217  1  0.90510000  0.82200000  0.79650000  1.0
  N  N218  1  0.51220000  0.70600000  0.76800000  1.0
  N  N219  1  0.46440000  0.99300000  0.65940000  1.0
  N  N220  1  0.40360000  0.27100000  0.66930000  1.0
  N  N221  1  0.46030000  0.01400000  0.78690000  1.0
  N  N222  1  0.41130000  0.26600000  0.55080000  1.0
  N  N223  1  0.40510000  0.32200000  0.79650000  1.0
  O  O224  1  0.82470000  0.52600000  0.10180000  1.0
  O  O225  1  0.79330000  0.12800000  0.04260000  1.0
  O  O226  1  0.18810000  0.47400000  0.71230000  1.0
  O  O227  1  0.19000000  0.86800000  0.77340000  1.0
  O  O228  1  0.24000000  0.86600000  0.13700000  1.0
  O  O229  1  0.19610000  0.49500000  0.09030000  1.0
  O  O230  1  0.32470000  0.02600000  0.10180000  1.0
  O  O231  1  0.29330000  0.62800000  0.04260000  1.0
  O  O232  1  0.68810000  0.97400000  0.71230000  1.0
  O  O233  1  0.69000000  0.36800000  0.77340000  1.0
  O  O234  1  0.74000000  0.36600000  0.13700000  1.0
  O  O235  1  0.69610000  0.99500000  0.09030000  1.0
  O  O236  1  0.17530000  0.52600000  0.89820000  1.0
  O  O237  1  0.20670000  0.12800000  0.95740000  1.0
  O  O238  1  0.81190000  0.47400000  0.28770000  1.0
  O  O239  1  0.81000000  0.86800000  0.22660000  1.0
  O  O240  1  0.76000000  0.86600000  0.86300000  1.0
  O  O241  1  0.80390000  0.49500000  0.90970000  1.0
  O  O242  1  0.67530000  0.02600000  0.89820000  1.0
  O  O243  1  0.70670000  0.62800000  0.95740000  1.0
  O  O244  1  0.31190000  0.97400000  0.28770000  1.0
  O  O245  1  0.31000000  0.36800000  0.22660000  1.0
  O  O246  1  0.26000000  0.36600000  0.86300000  1.0
  O  O247  1  0.30390000  0.99500000  0.90970000  1.0
