# generated using pymatgen
data_Zn4H24C48O13
_symmetry_space_group_name_H-M   'P 1'
_cell_length_a   19.80700000
_cell_length_b   27.71400000
_cell_length_c   27.84700000
_cell_angle_alpha   90.00000000
_cell_angle_beta   90.00000000
_cell_angle_gamma   90.00000000
_symmetry_Int_Tables_number   1
_chemical_formula_structural   Zn4H24C48O13
_chemical_formula_sum   'Zn16 H96 C192 O52'
_cell_volume   15286.08707071
_cell_formula_units_Z   4
loop_
 _symmetry_equiv_pos_site_id
 _symmetry_equiv_pos_as_xyz
  1  'x, y, z'
loop_
 _atom_site_type_symbol
 _atom_site_label
 _atom_site_symmetry_multiplicity
 _atom_site_fract_x
 _atom_site_fract_y
 _atom_site_fract_z
 _atom_site_occupancy
  Zn  Zn0  1  0.31144000  0.94237000  0.61801000  1.0
  Zn  Zn1  1  0.18856000  0.55763000  0.11801000  1.0
  Zn  Zn2  1  0.31144000  0.05763000  0.61801000  1.0
  Zn  Zn3  1  0.18856000  0.44237000  0.11801000  1.0
  Zn  Zn4  1  0.19959000  0.00000000  0.56206000  1.0
  Zn  Zn5  1  0.19876000  0.00000000  0.67577000  1.0
  Zn  Zn6  1  0.30041000  0.50000000  0.06206000  1.0
  Zn  Zn7  1  0.30124000  0.50000000  0.17577000  1.0
  Zn  Zn8  1  0.68856000  0.94237000  0.38199000  1.0
  Zn  Zn9  1  0.81144000  0.55763000  0.88199000  1.0
  Zn  Zn10  1  0.68856000  0.05763000  0.38199000  1.0
  Zn  Zn11  1  0.81144000  0.44237000  0.88199000  1.0
  Zn  Zn12  1  0.80041000  0.00000000  0.43794000  1.0
  Zn  Zn13  1  0.80124000  0.00000000  0.32423000  1.0
  Zn  Zn14  1  0.69959000  0.50000000  0.93794000  1.0
  Zn  Zn15  1  0.69876000  0.50000000  0.82423000  1.0
  H  H16  1  0.35810000  0.85150000  0.49900000  1.0
  H  H17  1  0.36370000  0.79560000  0.43650000  1.0
  H  H18  1  0.19470000  0.84760000  0.38310000  1.0
  H  H19  1  0.18830000  0.90610000  0.44370000  1.0
  H  H20  1  0.18990000  0.73590000  0.26830000  1.0
  H  H21  1  0.17730000  0.67120000  0.21540000  1.0
  H  H22  1  0.33730000  0.60860000  0.27220000  1.0
  H  H23  1  0.34760000  0.67250000  0.32610000  1.0
  H  H24  1  0.64200000  0.07340000  0.62180000  1.0
  H  H25  1  0.52460000  0.07230000  0.62210000  1.0
  H  H26  1  0.14190000  0.64850000  0.99900000  1.0
  H  H27  1  0.13630000  0.70440000  0.93650000  1.0
  H  H28  1  0.30530000  0.65240000  0.88310000  1.0
  H  H29  1  0.31170000  0.59390000  0.94370000  1.0
  H  H30  1  0.31010000  0.76410000  0.76830000  1.0
  H  H31  1  0.32270000  0.82880000  0.71540000  1.0
  H  H32  1  0.16270000  0.89140000  0.77220000  1.0
  H  H33  1  0.15240000  0.82750000  0.82610000  1.0
  H  H34  1  0.85800000  0.42660000  0.12180000  1.0
  H  H35  1  0.97540000  0.42770000  0.12210000  1.0
  H  H36  1  0.35810000  0.14850000  0.49900000  1.0
  H  H37  1  0.36370000  0.20440000  0.43650000  1.0
  H  H38  1  0.19470000  0.15240000  0.38310000  1.0
  H  H39  1  0.18830000  0.09390000  0.44370000  1.0
  H  H40  1  0.18990000  0.26410000  0.26830000  1.0
  H  H41  1  0.17730000  0.32880000  0.21540000  1.0
  H  H42  1  0.33730000  0.39140000  0.27220000  1.0
  H  H43  1  0.34760000  0.32750000  0.32610000  1.0
  H  H44  1  0.64200000  0.92660000  0.62180000  1.0
  H  H45  1  0.52460000  0.92770000  0.62210000  1.0
  H  H46  1  0.14190000  0.35150000  0.99900000  1.0
  H  H47  1  0.13630000  0.29560000  0.93650000  1.0
  H  H48  1  0.30530000  0.34760000  0.88310000  1.0
  H  H49  1  0.31170000  0.40610000  0.94370000  1.0
  H  H50  1  0.31010000  0.23590000  0.76830000  1.0
  H  H51  1  0.32270000  0.17120000  0.71540000  1.0
  H  H52  1  0.16270000  0.10860000  0.77220000  1.0
  H  H53  1  0.15240000  0.17250000  0.82610000  1.0
  H  H54  1  0.85800000  0.57340000  0.12180000  1.0
  H  H55  1  0.97540000  0.57230000  0.12210000  1.0
  H  H56  1  0.99160000  0.00000000  0.68350000  1.0
  H  H57  1  0.87360000  0.00000000  0.68760000  1.0
  H  H58  1  0.86840000  0.00000000  0.54340000  1.0
  H  H59  1  0.98500000  0.00000000  0.54140000  1.0
  H  H60  1  0.50840000  0.50000000  0.18350000  1.0
  H  H61  1  0.62640000  0.50000000  0.18760000  1.0
  H  H62  1  0.63160000  0.50000000  0.04340000  1.0
  H  H63  1  0.51500000  0.50000000  0.04140000  1.0
  H  H64  1  0.64190000  0.85150000  0.50100000  1.0
  H  H65  1  0.63630000  0.79560000  0.56350000  1.0
  H  H66  1  0.80530000  0.84760000  0.61690000  1.0
  H  H67  1  0.81170000  0.90610000  0.55630000  1.0
  H  H68  1  0.81010000  0.73590000  0.73170000  1.0
  H  H69  1  0.82270000  0.67120000  0.78460000  1.0
  H  H70  1  0.66270000  0.60860000  0.72780000  1.0
  H  H71  1  0.65240000  0.67250000  0.67390000  1.0
  H  H72  1  0.35800000  0.07340000  0.37820000  1.0
  H  H73  1  0.47540000  0.07230000  0.37790000  1.0
  H  H74  1  0.85810000  0.64850000  0.00100000  1.0
  H  H75  1  0.86370000  0.70440000  0.06350000  1.0
  H  H76  1  0.69470000  0.65240000  0.11690000  1.0
  H  H77  1  0.68830000  0.59390000  0.05630000  1.0
  H  H78  1  0.68990000  0.76410000  0.23170000  1.0
  H  H79  1  0.67730000  0.82880000  0.28460000  1.0
  H  H80  1  0.83730000  0.89140000  0.22780000  1.0
  H  H81  1  0.84760000  0.82750000  0.17390000  1.0
  H  H82  1  0.14200000  0.42660000  0.87820000  1.0
  H  H83  1  0.02460000  0.42770000  0.87790000  1.0
  H  H84  1  0.64190000  0.14850000  0.50100000  1.0
  H  H85  1  0.63630000  0.20440000  0.56350000  1.0
  H  H86  1  0.80530000  0.15240000  0.61690000  1.0
  H  H87  1  0.81170000  0.09390000  0.55630000  1.0
  H  H88  1  0.81010000  0.26410000  0.73170000  1.0
  H  H89  1  0.82270000  0.32880000  0.78460000  1.0
  H  H90  1  0.66270000  0.39140000  0.72780000  1.0
  H  H91  1  0.65240000  0.32750000  0.67390000  1.0
  H  H92  1  0.35800000  0.92660000  0.37820000  1.0
  H  H93  1  0.47540000  0.92770000  0.37790000  1.0
  H  H94  1  0.85810000  0.35150000  0.00100000  1.0
  H  H95  1  0.86370000  0.29560000  0.06350000  1.0
  H  H96  1  0.69470000  0.34760000  0.11690000  1.0
  H  H97  1  0.68830000  0.40610000  0.05630000  1.0
  H  H98  1  0.68990000  0.23590000  0.23170000  1.0
  H  H99  1  0.67730000  0.17120000  0.28460000  1.0
  H  H100  1  0.83730000  0.10860000  0.22780000  1.0
  H  H101  1  0.84760000  0.17250000  0.17390000  1.0
  H  H102  1  0.14200000  0.57340000  0.87820000  1.0
  H  H103  1  0.02460000  0.57230000  0.87790000  1.0
  H  H104  1  0.00840000  0.00000000  0.31650000  1.0
  H  H105  1  0.12640000  0.00000000  0.31240000  1.0
  H  H106  1  0.13160000  0.00000000  0.45660000  1.0
  H  H107  1  0.01500000  0.00000000  0.45860000  1.0
  H  H108  1  0.49160000  0.50000000  0.81650000  1.0
  H  H109  1  0.37360000  0.50000000  0.81240000  1.0
  H  H110  1  0.36840000  0.50000000  0.95660000  1.0
  H  H111  1  0.48500000  0.50000000  0.95860000  1.0
  C  C112  1  0.26600000  0.91730000  0.52060000  1.0
  C  C113  1  0.27090000  0.88230000  0.47980000  1.0
  C  C114  1  0.32300000  0.85080000  0.47580000  1.0
  C  C115  1  0.32630000  0.81700000  0.43820000  1.0
  C  C116  1  0.27630000  0.81450000  0.40360000  1.0
  C  C117  1  0.22870000  0.84750000  0.40720000  1.0
  C  C118  1  0.22350000  0.88280000  0.44390000  1.0
  C  C119  1  0.27640000  0.77960000  0.36900000  1.0
  C  C120  1  0.27540000  0.74910000  0.33880000  1.0
  C  C121  1  0.27000000  0.71170000  0.30200000  1.0
  C  C122  1  0.22150000  0.71020000  0.26950000  1.0
  C  C123  1  0.21460000  0.67220000  0.23680000  1.0
  C  C124  1  0.26020000  0.63800000  0.23600000  1.0
  C  C125  1  0.30780000  0.63560000  0.27020000  1.0
  C  C126  1  0.31280000  0.67340000  0.30260000  1.0
  C  C127  1  0.25420000  0.59350000  0.20420000  1.0
  C  C128  1  0.61830000  0.04360000  0.62180000  1.0
  C  C129  1  0.54870000  0.04270000  0.62280000  1.0
  C  C130  1  0.23400000  0.58270000  0.02060000  1.0
  C  C131  1  0.22910000  0.61770000  0.97980000  1.0
  C  C132  1  0.17700000  0.64920000  0.97580000  1.0
  C  C133  1  0.17370000  0.68300000  0.93820000  1.0
  C  C134  1  0.22370000  0.68550000  0.90360000  1.0
  C  C135  1  0.27130000  0.65250000  0.90720000  1.0
  C  C136  1  0.27650000  0.61720000  0.94390000  1.0
  C  C137  1  0.22360000  0.72040000  0.86900000  1.0
  C  C138  1  0.22460000  0.75090000  0.83880000  1.0
  C  C139  1  0.23000000  0.78830000  0.80200000  1.0
  C  C140  1  0.27850000  0.78980000  0.76950000  1.0
  C  C141  1  0.28540000  0.82780000  0.73680000  1.0
  C  C142  1  0.23980000  0.86200000  0.73600000  1.0
  C  C143  1  0.19220000  0.86440000  0.77020000  1.0
  C  C144  1  0.18720000  0.82660000  0.80260000  1.0
  C  C145  1  0.24580000  0.90650000  0.70420000  1.0
  C  C146  1  0.88170000  0.45640000  0.12180000  1.0
  C  C147  1  0.95130000  0.45730000  0.12280000  1.0
  C  C148  1  0.26600000  0.08270000  0.52060000  1.0
  C  C149  1  0.27090000  0.11770000  0.47980000  1.0
  C  C150  1  0.32300000  0.14920000  0.47580000  1.0
  C  C151  1  0.32630000  0.18300000  0.43820000  1.0
  C  C152  1  0.27630000  0.18550000  0.40360000  1.0
  C  C153  1  0.22870000  0.15250000  0.40720000  1.0
  C  C154  1  0.22350000  0.11720000  0.44390000  1.0
  C  C155  1  0.27640000  0.22040000  0.36900000  1.0
  C  C156  1  0.27540000  0.25090000  0.33880000  1.0
  C  C157  1  0.27000000  0.28830000  0.30200000  1.0
  C  C158  1  0.22150000  0.28980000  0.26950000  1.0
  C  C159  1  0.21460000  0.32780000  0.23680000  1.0
  C  C160  1  0.26020000  0.36200000  0.23600000  1.0
  C  C161  1  0.30780000  0.36440000  0.27020000  1.0
  C  C162  1  0.31280000  0.32660000  0.30260000  1.0
  C  C163  1  0.25420000  0.40650000  0.20420000  1.0
  C  C164  1  0.61830000  0.95640000  0.62180000  1.0
  C  C165  1  0.54870000  0.95730000  0.62280000  1.0
  C  C166  1  0.23400000  0.41730000  0.02060000  1.0
  C  C167  1  0.22910000  0.38230000  0.97980000  1.0
  C  C168  1  0.17700000  0.35080000  0.97580000  1.0
  C  C169  1  0.17370000  0.31700000  0.93820000  1.0
  C  C170  1  0.22370000  0.31450000  0.90360000  1.0
  C  C171  1  0.27130000  0.34750000  0.90720000  1.0
  C  C172  1  0.27650000  0.38280000  0.94390000  1.0
  C  C173  1  0.22360000  0.27960000  0.86900000  1.0
  C  C174  1  0.22460000  0.24910000  0.83880000  1.0
  C  C175  1  0.23000000  0.21170000  0.80200000  1.0
  C  C176  1  0.27850000  0.21020000  0.76950000  1.0
  C  C177  1  0.28540000  0.17220000  0.73680000  1.0
  C  C178  1  0.23980000  0.13800000  0.73600000  1.0
  C  C179  1  0.19220000  0.13560000  0.77020000  1.0
  C  C180  1  0.18720000  0.17340000  0.80260000  1.0
  C  C181  1  0.24580000  0.09350000  0.70420000  1.0
  C  C182  1  0.88170000  0.54360000  0.12180000  1.0
  C  C183  1  0.95130000  0.54270000  0.12280000  1.0
  C  C184  1  0.07550000  0.00000000  0.61150000  1.0
  C  C185  1  0.99760000  0.00000000  0.61120000  1.0
  C  C186  1  0.96570000  0.00000000  0.65480000  1.0
  C  C187  1  0.89550000  0.00000000  0.65730000  1.0
  C  C188  1  0.85720000  0.00000000  0.61490000  1.0
  C  C189  1  0.89260000  0.00000000  0.57280000  1.0
  C  C190  1  0.96240000  0.00000000  0.57150000  1.0
  C  C191  1  0.78490000  0.00000000  0.61560000  1.0
  C  C192  1  0.72530000  0.00000000  0.61840000  1.0
  C  C193  1  0.65300000  0.00000000  0.62080000  1.0
  C  C194  1  0.51300000  0.00000000  0.62480000  1.0
  C  C195  1  0.43540000  0.00000000  0.62360000  1.0
  C  C196  1  0.42450000  0.50000000  0.11150000  1.0
  C  C197  1  0.50240000  0.50000000  0.11120000  1.0
  C  C198  1  0.53430000  0.50000000  0.15480000  1.0
  C  C199  1  0.60450000  0.50000000  0.15730000  1.0
  C  C200  1  0.64280000  0.50000000  0.11490000  1.0
  C  C201  1  0.60740000  0.50000000  0.07280000  1.0
  C  C202  1  0.53760000  0.50000000  0.07150000  1.0
  C  C203  1  0.71510000  0.50000000  0.11560000  1.0
  C  C204  1  0.77470000  0.50000000  0.11840000  1.0
  C  C205  1  0.84700000  0.50000000  0.12080000  1.0
  C  C206  1  0.98700000  0.50000000  0.12480000  1.0
  C  C207  1  0.06460000  0.50000000  0.12360000  1.0
  C  C208  1  0.73400000  0.91730000  0.47940000  1.0
  C  C209  1  0.72910000  0.88230000  0.52020000  1.0
  C  C210  1  0.67700000  0.85080000  0.52420000  1.0
  C  C211  1  0.67370000  0.81700000  0.56180000  1.0
  C  C212  1  0.72370000  0.81450000  0.59640000  1.0
  C  C213  1  0.77130000  0.84750000  0.59280000  1.0
  C  C214  1  0.77650000  0.88280000  0.55610000  1.0
  C  C215  1  0.72360000  0.77960000  0.63100000  1.0
  C  C216  1  0.72460000  0.74910000  0.66120000  1.0
  C  C217  1  0.73000000  0.71170000  0.69800000  1.0
  C  C218  1  0.77850000  0.71020000  0.73050000  1.0
  C  C219  1  0.78540000  0.67220000  0.76320000  1.0
  C  C220  1  0.73980000  0.63800000  0.76400000  1.0
  C  C221  1  0.69220000  0.63560000  0.72980000  1.0
  C  C222  1  0.68720000  0.67340000  0.69740000  1.0
  C  C223  1  0.74580000  0.59350000  0.79580000  1.0
  C  C224  1  0.38170000  0.04360000  0.37820000  1.0
  C  C225  1  0.45130000  0.04270000  0.37720000  1.0
  C  C226  1  0.76600000  0.58270000  0.97940000  1.0
  C  C227  1  0.77090000  0.61770000  0.02020000  1.0
  C  C228  1  0.82300000  0.64920000  0.02420000  1.0
  C  C229  1  0.82630000  0.68300000  0.06180000  1.0
  C  C230  1  0.77630000  0.68550000  0.09640000  1.0
  C  C231  1  0.72870000  0.65250000  0.09280000  1.0
  C  C232  1  0.72350000  0.61720000  0.05610000  1.0
  C  C233  1  0.77640000  0.72040000  0.13100000  1.0
  C  C234  1  0.77540000  0.75090000  0.16120000  1.0
  C  C235  1  0.77000000  0.78830000  0.19800000  1.0
  C  C236  1  0.72150000  0.78980000  0.23050000  1.0
  C  C237  1  0.71460000  0.82780000  0.26320000  1.0
  C  C238  1  0.76020000  0.86200000  0.26400000  1.0
  C  C239  1  0.80780000  0.86440000  0.22980000  1.0
  C  C240  1  0.81280000  0.82660000  0.19740000  1.0
  C  C241  1  0.75420000  0.90650000  0.29580000  1.0
  C  C242  1  0.11830000  0.45640000  0.87820000  1.0
  C  C243  1  0.04870000  0.45730000  0.87720000  1.0
  C  C244  1  0.73400000  0.08270000  0.47940000  1.0
  C  C245  1  0.72910000  0.11770000  0.52020000  1.0
  C  C246  1  0.67700000  0.14920000  0.52420000  1.0
  C  C247  1  0.67370000  0.18300000  0.56180000  1.0
  C  C248  1  0.72370000  0.18550000  0.59640000  1.0
  C  C249  1  0.77130000  0.15250000  0.59280000  1.0
  C  C250  1  0.77650000  0.11720000  0.55610000  1.0
  C  C251  1  0.72360000  0.22040000  0.63100000  1.0
  C  C252  1  0.72460000  0.25090000  0.66120000  1.0
  C  C253  1  0.73000000  0.28830000  0.69800000  1.0
  C  C254  1  0.77850000  0.28980000  0.73050000  1.0
  C  C255  1  0.78540000  0.32780000  0.76320000  1.0
  C  C256  1  0.73980000  0.36200000  0.76400000  1.0
  C  C257  1  0.69220000  0.36440000  0.72980000  1.0
  C  C258  1  0.68720000  0.32660000  0.69740000  1.0
  C  C259  1  0.74580000  0.40650000  0.79580000  1.0
  C  C260  1  0.38170000  0.95640000  0.37820000  1.0
  C  C261  1  0.45130000  0.95730000  0.37720000  1.0
  C  C262  1  0.76600000  0.41730000  0.97940000  1.0
  C  C263  1  0.77090000  0.38230000  0.02020000  1.0
  C  C264  1  0.82300000  0.35080000  0.02420000  1.0
  C  C265  1  0.82630000  0.31700000  0.06180000  1.0
  C  C266  1  0.77630000  0.31450000  0.09640000  1.0
  C  C267  1  0.72870000  0.34750000  0.09280000  1.0
  C  C268  1  0.72350000  0.38280000  0.05610000  1.0
  C  C269  1  0.77640000  0.27960000  0.13100000  1.0
  C  C270  1  0.77540000  0.24910000  0.16120000  1.0
  C  C271  1  0.77000000  0.21170000  0.19800000  1.0
  C  C272  1  0.72150000  0.21020000  0.23050000  1.0
  C  C273  1  0.71460000  0.17220000  0.26320000  1.0
  C  C274  1  0.76020000  0.13800000  0.26400000  1.0
  C  C275  1  0.80780000  0.13560000  0.22980000  1.0
  C  C276  1  0.81280000  0.17340000  0.19740000  1.0
  C  C277  1  0.75420000  0.09350000  0.29580000  1.0
  C  C278  1  0.11830000  0.54360000  0.87820000  1.0
  C  C279  1  0.04870000  0.54270000  0.87720000  1.0
  C  C280  1  0.92450000  0.00000000  0.38850000  1.0
  C  C281  1  0.00240000  0.00000000  0.38880000  1.0
  C  C282  1  0.03430000  0.00000000  0.34520000  1.0
  C  C283  1  0.10450000  0.00000000  0.34270000  1.0
  C  C284  1  0.14280000  0.00000000  0.38510000  1.0
  C  C285  1  0.10740000  0.00000000  0.42720000  1.0
  C  C286  1  0.03760000  0.00000000  0.42850000  1.0
  C  C287  1  0.21510000  0.00000000  0.38440000  1.0
  C  C288  1  0.27470000  0.00000000  0.38160000  1.0
  C  C289  1  0.34700000  0.00000000  0.37920000  1.0
  C  C290  1  0.48700000  0.00000000  0.37520000  1.0
  C  C291  1  0.56460000  0.00000000  0.37640000  1.0
  C  C292  1  0.57550000  0.50000000  0.88850000  1.0
  C  C293  1  0.49760000  0.50000000  0.88880000  1.0
  C  C294  1  0.46570000  0.50000000  0.84520000  1.0
  C  C295  1  0.39550000  0.50000000  0.84270000  1.0
  C  C296  1  0.35720000  0.50000000  0.88510000  1.0
  C  C297  1  0.39260000  0.50000000  0.92720000  1.0
  C  C298  1  0.46240000  0.50000000  0.92850000  1.0
  C  C299  1  0.28490000  0.50000000  0.88440000  1.0
  C  C300  1  0.22530000  0.50000000  0.88160000  1.0
  C  C301  1  0.15300000  0.50000000  0.87920000  1.0
  C  C302  1  0.01300000  0.50000000  0.87520000  1.0
  C  C303  1  0.93540000  0.50000000  0.87640000  1.0
  O  O304  1  0.31011000  0.91543000  0.55187000  1.0
  O  O305  1  0.21760000  0.94576000  0.51900000  1.0
  O  O306  1  0.20520000  0.59990000  0.17050000  1.0
  O  O307  1  0.29660000  0.56180000  0.20410000  1.0
  O  O308  1  0.40759000  0.04037000  0.62312000  1.0
  O  O309  1  0.18989000  0.58457000  0.05187000  1.0
  O  O310  1  0.28240000  0.55424000  0.01900000  1.0
  O  O311  1  0.29480000  0.90010000  0.67050000  1.0
  O  O312  1  0.20340000  0.93820000  0.70410000  1.0
  O  O313  1  0.09241000  0.45963000  0.12312000  1.0
  O  O314  1  0.31011000  0.08457000  0.55187000  1.0
  O  O315  1  0.21760000  0.05424000  0.51900000  1.0
  O  O316  1  0.20520000  0.40010000  0.17050000  1.0
  O  O317  1  0.29660000  0.43820000  0.20410000  1.0
  O  O318  1  0.40759000  0.95963000  0.62312000  1.0
  O  O319  1  0.18989000  0.41543000  0.05187000  1.0
  O  O320  1  0.28240000  0.44576000  0.01900000  1.0
  O  O321  1  0.29480000  0.09990000  0.67050000  1.0
  O  O322  1  0.20340000  0.06180000  0.70410000  1.0
  O  O323  1  0.09241000  0.54037000  0.12312000  1.0
  O  O324  1  0.25593000  0.00000000  0.61830000  1.0
  O  O325  1  0.10410000  0.00000000  0.65226000  1.0
  O  O326  1  0.10220000  0.00000000  0.57093000  1.0
  O  O327  1  0.24407000  0.50000000  0.11830000  1.0
  O  O328  1  0.39590000  0.50000000  0.15226000  1.0
  O  O329  1  0.39780000  0.50000000  0.07093000  1.0
  O  O330  1  0.68989000  0.91543000  0.44813000  1.0
  O  O331  1  0.78240000  0.94576000  0.48100000  1.0
  O  O332  1  0.79480000  0.59990000  0.82950000  1.0
  O  O333  1  0.70340000  0.56180000  0.79590000  1.0
  O  O334  1  0.59241000  0.04037000  0.37688000  1.0
  O  O335  1  0.81011000  0.58457000  0.94813000  1.0
  O  O336  1  0.71760000  0.55424000  0.98100000  1.0
  O  O337  1  0.70520000  0.90010000  0.32950000  1.0
  O  O338  1  0.79660000  0.93820000  0.29590000  1.0
  O  O339  1  0.90759000  0.45963000  0.87688000  1.0
  O  O340  1  0.68989000  0.08457000  0.44813000  1.0
  O  O341  1  0.78240000  0.05424000  0.48100000  1.0
  O  O342  1  0.79480000  0.40010000  0.82950000  1.0
  O  O343  1  0.70340000  0.43820000  0.79590000  1.0
  O  O344  1  0.59241000  0.95963000  0.37688000  1.0
  O  O345  1  0.81011000  0.41543000  0.94813000  1.0
  O  O346  1  0.71760000  0.44576000  0.98100000  1.0
  O  O347  1  0.70520000  0.09990000  0.32950000  1.0
  O  O348  1  0.79660000  0.06180000  0.29590000  1.0
  O  O349  1  0.90759000  0.54037000  0.87688000  1.0
  O  O350  1  0.74407000  0.00000000  0.38170000  1.0
  O  O351  1  0.89590000  0.00000000  0.34774000  1.0
  O  O352  1  0.89780000  0.00000000  0.42907000  1.0
  O  O353  1  0.75593000  0.50000000  0.88170000  1.0
  O  O354  1  0.60410000  0.50000000  0.84774000  1.0
  O  O355  1  0.60220000  0.50000000  0.92907000  1.0
