# generated using pymatgen
data_FeAg2H8(C2N)8
_symmetry_space_group_name_H-M   'P 1'
_cell_length_a   26.24200000
_cell_length_b   26.24200000
_cell_length_c   9.56440000
_cell_angle_alpha   90.00000000
_cell_angle_beta   90.00000000
_cell_angle_gamma   120.00000000
_symmetry_Int_Tables_number   1
_chemical_formula_structural   FeAg2H8(C2N)8
_chemical_formula_sum   'Fe9 Ag18 H72 C144 N72'
_cell_volume   5704.03556611
_cell_formula_units_Z   9
loop_
 _symmetry_equiv_pos_site_id
 _symmetry_equiv_pos_as_xyz
  1  'x, y, z'
loop_
 _atom_site_type_symbol
 _atom_site_label
 _atom_site_symmetry_multiplicity
 _atom_site_fract_x
 _atom_site_fract_y
 _atom_site_fract_z
 _atom_site_occupancy
  Fe  Fe0  1  0.33333333  0.16667000  0.16667000  1.0
  Fe  Fe1  1  0.00000000  0.50000000  0.50000000  1.0
  Fe  Fe2  1  0.83333000  0.16667000  0.16667000  1.0
  Fe  Fe3  1  0.50000000  0.50000000  0.50000000  1.0
  Fe  Fe4  1  0.83333000  0.66666667  0.16667000  1.0
  Fe  Fe5  1  0.50000000  0.00000000  0.50000000  1.0
  Fe  Fe6  1  0.16667000  0.33333333  0.83333000  1.0
  Fe  Fe7  1  0.16667000  0.83333000  0.83333000  1.0
  Fe  Fe8  1  0.66666667  0.83333000  0.83333000  1.0
  Ag  Ag9  1  0.29860000  0.29860000  0.50000000  1.0
  Ag  Ag10  1  0.96527000  0.63193000  0.83333000  1.0
  Ag  Ag11  1  0.63193000  0.96527000  0.16667000  1.0
  Ag  Ag12  1  0.70140000  0.00000000  0.50000000  1.0
  Ag  Ag13  1  0.36807000  0.33333333  0.83333000  1.0
  Ag  Ag14  1  0.03473000  0.66666667  0.16667000  1.0
  Ag  Ag15  1  0.00000000  0.70140000  0.50000000  1.0
  Ag  Ag16  1  0.66666667  0.03473000  0.83333000  1.0
  Ag  Ag17  1  0.33333333  0.36807000  0.16667000  1.0
  Ag  Ag18  1  0.70140000  0.70140000  0.50000000  1.0
  Ag  Ag19  1  0.36807000  0.03473000  0.83333000  1.0
  Ag  Ag20  1  0.03473000  0.36807000  0.16667000  1.0
  Ag  Ag21  1  0.29860000  0.00000000  0.50000000  1.0
  Ag  Ag22  1  0.96527000  0.33333333  0.83333000  1.0
  Ag  Ag23  1  0.63193000  0.66666667  0.16667000  1.0
  Ag  Ag24  1  0.00000000  0.29860000  0.50000000  1.0
  Ag  Ag25  1  0.66666667  0.63193000  0.83333000  1.0
  Ag  Ag26  1  0.33333333  0.96527000  0.16667000  1.0
  H  H27  1  0.43040000  0.29010000  0.17510000  1.0
  H  H28  1  0.53260000  0.34310000  0.17050000  1.0
  H  H29  1  0.09707000  0.62343000  0.50843000  1.0
  H  H30  1  0.19927000  0.67643000  0.50383000  1.0
  H  H31  1  0.76373000  0.95677000  0.84177000  1.0
  H  H32  1  0.86593000  0.00977000  0.83717000  1.0
  H  H33  1  0.70990000  0.14030000  0.17510000  1.0
  H  H34  1  0.65690000  0.18950000  0.17050000  1.0
  H  H35  1  0.37657000  0.47363000  0.50843000  1.0
  H  H36  1  0.32357000  0.52283000  0.50383000  1.0
  H  H37  1  0.04323000  0.80697000  0.84177000  1.0
  H  H38  1  0.99023000  0.85617000  0.83717000  1.0
  H  H39  1  0.85970000  0.56960000  0.17510000  1.0
  H  H40  1  0.81050000  0.46740000  0.17050000  1.0
  H  H41  1  0.52637000  0.90293000  0.50843000  1.0
  H  H42  1  0.47717000  0.80073000  0.50383000  1.0
  H  H43  1  0.19303000  0.23627000  0.84177000  1.0
  H  H44  1  0.14383000  0.13407000  0.83717000  1.0
  H  H45  1  0.29010000  0.43040000  0.82490000  1.0
  H  H46  1  0.34310000  0.53260000  0.82950000  1.0
  H  H47  1  0.95677000  0.76373000  0.15823000  1.0
  H  H48  1  0.00977000  0.86593000  0.16283000  1.0
  H  H49  1  0.62343000  0.09707000  0.49157000  1.0
  H  H50  1  0.67643000  0.19927000  0.49617000  1.0
  H  H51  1  0.14030000  0.70990000  0.82490000  1.0
  H  H52  1  0.18950000  0.65690000  0.82950000  1.0
  H  H53  1  0.80697000  0.04323000  0.15823000  1.0
  H  H54  1  0.85617000  0.99023000  0.16283000  1.0
  H  H55  1  0.47363000  0.37657000  0.49157000  1.0
  H  H56  1  0.52283000  0.32357000  0.49617000  1.0
  H  H57  1  0.56960000  0.85970000  0.82490000  1.0
  H  H58  1  0.46740000  0.81050000  0.82950000  1.0
  H  H59  1  0.23627000  0.19303000  0.15823000  1.0
  H  H60  1  0.13407000  0.14383000  0.16283000  1.0
  H  H61  1  0.90293000  0.52637000  0.49157000  1.0
  H  H62  1  0.80073000  0.47717000  0.49617000  1.0
  H  H63  1  0.56960000  0.70990000  0.82490000  1.0
  H  H64  1  0.46740000  0.65690000  0.82950000  1.0
  H  H65  1  0.23627000  0.04323000  0.15823000  1.0
  H  H66  1  0.13407000  0.99023000  0.16283000  1.0
  H  H67  1  0.90293000  0.37657000  0.49157000  1.0
  H  H68  1  0.80073000  0.32357000  0.49617000  1.0
  H  H69  1  0.29010000  0.85970000  0.82490000  1.0
  H  H70  1  0.34310000  0.81050000  0.82950000  1.0
  H  H71  1  0.95677000  0.19303000  0.15823000  1.0
  H  H72  1  0.00977000  0.14383000  0.16283000  1.0
  H  H73  1  0.62343000  0.52637000  0.49157000  1.0
  H  H74  1  0.67643000  0.47717000  0.49617000  1.0
  H  H75  1  0.14030000  0.43040000  0.82490000  1.0
  H  H76  1  0.18950000  0.53260000  0.82950000  1.0
  H  H77  1  0.80697000  0.76373000  0.15823000  1.0
  H  H78  1  0.85617000  0.86593000  0.16283000  1.0
  H  H79  1  0.47363000  0.09707000  0.49157000  1.0
  H  H80  1  0.52283000  0.19927000  0.49617000  1.0
  H  H81  1  0.70990000  0.56960000  0.17510000  1.0
  H  H82  1  0.65690000  0.46740000  0.17050000  1.0
  H  H83  1  0.37657000  0.90293000  0.50843000  1.0
  H  H84  1  0.32357000  0.80073000  0.50383000  1.0
  H  H85  1  0.04323000  0.23627000  0.84177000  1.0
  H  H86  1  0.99023000  0.13407000  0.83717000  1.0
  H  H87  1  0.85970000  0.29010000  0.17510000  1.0
  H  H88  1  0.81050000  0.34310000  0.17050000  1.0
  H  H89  1  0.52637000  0.62343000  0.50843000  1.0
  H  H90  1  0.47717000  0.67643000  0.50383000  1.0
  H  H91  1  0.19303000  0.95677000  0.84177000  1.0
  H  H92  1  0.14383000  0.00977000  0.83717000  1.0
  H  H93  1  0.43040000  0.14030000  0.17510000  1.0
  H  H94  1  0.53260000  0.18950000  0.17050000  1.0
  H  H95  1  0.09707000  0.47363000  0.50843000  1.0
  H  H96  1  0.19927000  0.52283000  0.50383000  1.0
  H  H97  1  0.76373000  0.80697000  0.84177000  1.0
  H  H98  1  0.86593000  0.85617000  0.83717000  1.0
  C  C99  1  0.45120000  0.27000000  0.17350000  1.0
  C  C100  1  0.51270000  0.30220000  0.17130000  1.0
  C  C101  1  0.32690000  0.25160000  0.38150000  1.0
  C  C102  1  0.11787000  0.60333000  0.50683000  1.0
  C  C103  1  0.17937000  0.63553000  0.50463000  1.0
  C  C104  1  0.99357000  0.58493000  0.71483000  1.0
  C  C105  1  0.78453000  0.93667000  0.84017000  1.0
  C  C106  1  0.84603000  0.96887000  0.83797000  1.0
  C  C107  1  0.66023000  0.91827000  0.04817000  1.0
  C  C108  1  0.73000000  0.18120000  0.17350000  1.0
  C  C109  1  0.69780000  0.21050000  0.17130000  1.0
  C  C110  1  0.74840000  0.07530000  0.38150000  1.0
  C  C111  1  0.39667000  0.51453000  0.50683000  1.0
  C  C112  1  0.36447000  0.54383000  0.50463000  1.0
  C  C113  1  0.41507000  0.40863000  0.71483000  1.0
  C  C114  1  0.06333000  0.84787000  0.84017000  1.0
  C  C115  1  0.03113000  0.87717000  0.83797000  1.0
  C  C116  1  0.08173000  0.74197000  0.04817000  1.0
  C  C117  1  0.81880000  0.54880000  0.17350000  1.0
  C  C118  1  0.78950000  0.48730000  0.17130000  1.0
  C  C119  1  0.92470000  0.67310000  0.38150000  1.0
  C  C120  1  0.48547000  0.88213000  0.50683000  1.0
  C  C121  1  0.45617000  0.82063000  0.50463000  1.0
  C  C122  1  0.59137000  0.00643000  0.71483000  1.0
  C  C123  1  0.15213000  0.21547000  0.84017000  1.0
  C  C124  1  0.12283000  0.15397000  0.83797000  1.0
  C  C125  1  0.25803000  0.33977000  0.04817000  1.0
  C  C126  1  0.27000000  0.45120000  0.82650000  1.0
  C  C127  1  0.30220000  0.51270000  0.82870000  1.0
  C  C128  1  0.25160000  0.32690000  0.61850000  1.0
  C  C129  1  0.93667000  0.78453000  0.15983000  1.0
  C  C130  1  0.96887000  0.84603000  0.16203000  1.0
  C  C131  1  0.91827000  0.66023000  0.95183000  1.0
  C  C132  1  0.60333000  0.11787000  0.49317000  1.0
  C  C133  1  0.63553000  0.17937000  0.49537000  1.0
  C  C134  1  0.58493000  0.99357000  0.28517000  1.0
  C  C135  1  0.18120000  0.73000000  0.82650000  1.0
  C  C136  1  0.21050000  0.69780000  0.82870000  1.0
  C  C137  1  0.07530000  0.74840000  0.61850000  1.0
  C  C138  1  0.84787000  0.06333000  0.15983000  1.0
  C  C139  1  0.87717000  0.03113000  0.16203000  1.0
  C  C140  1  0.74197000  0.08173000  0.95183000  1.0
  C  C141  1  0.51453000  0.39667000  0.49317000  1.0
  C  C142  1  0.54383000  0.36447000  0.49537000  1.0
  C  C143  1  0.40863000  0.41507000  0.28517000  1.0
  C  C144  1  0.54880000  0.81880000  0.82650000  1.0
  C  C145  1  0.48730000  0.78950000  0.82870000  1.0
  C  C146  1  0.67310000  0.92470000  0.61850000  1.0
  C  C147  1  0.21547000  0.15213000  0.15983000  1.0
  C  C148  1  0.15397000  0.12283000  0.16203000  1.0
  C  C149  1  0.33977000  0.25803000  0.95183000  1.0
  C  C150  1  0.88213000  0.48547000  0.49317000  1.0
  C  C151  1  0.82063000  0.45617000  0.49537000  1.0
  C  C152  1  0.00643000  0.59137000  0.28517000  1.0
  C  C153  1  0.54880000  0.73000000  0.82650000  1.0
  C  C154  1  0.48730000  0.69780000  0.82870000  1.0
  C  C155  1  0.67310000  0.74840000  0.61850000  1.0
  C  C156  1  0.21547000  0.06333000  0.15983000  1.0
  C  C157  1  0.15397000  0.03113000  0.16203000  1.0
  C  C158  1  0.33977000  0.08173000  0.95183000  1.0
  C  C159  1  0.88213000  0.39667000  0.49317000  1.0
  C  C160  1  0.82063000  0.36447000  0.49537000  1.0
  C  C161  1  0.00643000  0.41507000  0.28517000  1.0
  C  C162  1  0.27000000  0.81880000  0.82650000  1.0
  C  C163  1  0.30220000  0.78950000  0.82870000  1.0
  C  C164  1  0.25160000  0.92470000  0.61850000  1.0
  C  C165  1  0.93667000  0.15213000  0.15983000  1.0
  C  C166  1  0.96887000  0.12283000  0.16203000  1.0
  C  C167  1  0.91827000  0.25803000  0.95183000  1.0
  C  C168  1  0.60333000  0.48547000  0.49317000  1.0
  C  C169  1  0.63553000  0.45617000  0.49537000  1.0
  C  C170  1  0.58493000  0.59137000  0.28517000  1.0
  C  C171  1  0.18120000  0.45120000  0.82650000  1.0
  C  C172  1  0.21050000  0.51270000  0.82870000  1.0
  C  C173  1  0.07530000  0.32690000  0.61850000  1.0
  C  C174  1  0.84787000  0.78453000  0.15983000  1.0
  C  C175  1  0.87717000  0.84603000  0.16203000  1.0
  C  C176  1  0.74197000  0.66023000  0.95183000  1.0
  C  C177  1  0.51453000  0.11787000  0.49317000  1.0
  C  C178  1  0.54383000  0.17937000  0.49537000  1.0
  C  C179  1  0.40863000  0.99357000  0.28517000  1.0
  C  C180  1  0.73000000  0.54880000  0.17350000  1.0
  C  C181  1  0.69780000  0.48730000  0.17130000  1.0
  C  C182  1  0.74840000  0.67310000  0.38150000  1.0
  C  C183  1  0.39667000  0.88213000  0.50683000  1.0
  C  C184  1  0.36447000  0.82063000  0.50463000  1.0
  C  C185  1  0.41507000  0.00643000  0.71483000  1.0
  C  C186  1  0.06333000  0.21547000  0.84017000  1.0
  C  C187  1  0.03113000  0.15397000  0.83797000  1.0
  C  C188  1  0.08173000  0.33977000  0.04817000  1.0
  C  C189  1  0.81880000  0.27000000  0.17350000  1.0
  C  C190  1  0.78950000  0.30220000  0.17130000  1.0
  C  C191  1  0.92470000  0.25160000  0.38150000  1.0
  C  C192  1  0.48547000  0.60333000  0.50683000  1.0
  C  C193  1  0.45617000  0.63553000  0.50463000  1.0
  C  C194  1  0.59137000  0.58493000  0.71483000  1.0
  C  C195  1  0.15213000  0.93667000  0.84017000  1.0
  C  C196  1  0.12283000  0.96887000  0.83797000  1.0
  C  C197  1  0.25803000  0.91827000  0.04817000  1.0
  C  C198  1  0.45120000  0.18120000  0.17350000  1.0
  C  C199  1  0.51270000  0.21050000  0.17130000  1.0
  C  C200  1  0.32690000  0.07530000  0.38150000  1.0
  C  C201  1  0.11787000  0.51453000  0.50683000  1.0
  C  C202  1  0.17937000  0.54383000  0.50463000  1.0
  C  C203  1  0.99357000  0.40863000  0.71483000  1.0
  C  C204  1  0.78453000  0.84787000  0.84017000  1.0
  C  C205  1  0.84603000  0.87717000  0.83797000  1.0
  C  C206  1  0.66023000  0.74197000  0.04817000  1.0
  C  C207  1  0.54380000  0.27190000  0.17020000  1.0
  C  C208  1  0.60890000  0.30445000  0.16450000  1.0
  C  C209  1  0.21047000  0.60523000  0.50353000  1.0
  C  C210  1  0.27557000  0.63778000  0.49783000  1.0
  C  C211  1  0.87713000  0.93857000  0.83687000  1.0
  C  C212  1  0.94223000  0.97112000  0.83117000  1.0
  C  C213  1  0.72810000  0.27190000  0.17020000  1.0
  C  C214  1  0.69555000  0.30445000  0.16450000  1.0
  C  C215  1  0.39477000  0.60523000  0.50353000  1.0
  C  C216  1  0.36222000  0.63778000  0.49783000  1.0
  C  C217  1  0.06143000  0.93857000  0.83687000  1.0
  C  C218  1  0.02888000  0.97112000  0.83117000  1.0
  C  C219  1  0.72810000  0.45620000  0.17020000  1.0
  C  C220  1  0.69555000  0.39110000  0.16450000  1.0
  C  C221  1  0.39477000  0.78953000  0.50353000  1.0
  C  C222  1  0.36222000  0.72443000  0.49783000  1.0
  C  C223  1  0.06143000  0.12287000  0.83687000  1.0
  C  C224  1  0.02888000  0.05777000  0.83117000  1.0
  C  C225  1  0.27190000  0.54380000  0.82980000  1.0
  C  C226  1  0.30445000  0.60890000  0.83550000  1.0
  C  C227  1  0.93857000  0.87713000  0.16313000  1.0
  C  C228  1  0.97112000  0.94223000  0.16883000  1.0
  C  C229  1  0.60523000  0.21047000  0.49647000  1.0
  C  C230  1  0.63778000  0.27557000  0.50217000  1.0
  C  C231  1  0.27190000  0.72810000  0.82980000  1.0
  C  C232  1  0.30445000  0.69555000  0.83550000  1.0
  C  C233  1  0.93857000  0.06143000  0.16313000  1.0
  C  C234  1  0.97112000  0.02888000  0.16883000  1.0
  C  C235  1  0.60523000  0.39477000  0.49647000  1.0
  C  C236  1  0.63778000  0.36222000  0.50217000  1.0
  C  C237  1  0.45620000  0.72810000  0.82980000  1.0
  C  C238  1  0.39110000  0.69555000  0.83550000  1.0
  C  C239  1  0.12287000  0.06143000  0.16313000  1.0
  C  C240  1  0.05777000  0.02888000  0.16883000  1.0
  C  C241  1  0.78953000  0.39477000  0.49647000  1.0
  C  C242  1  0.72443000  0.36222000  0.50217000  1.0
  N  N243  1  0.33170000  0.21880000  0.30760000  1.0
  N  N244  1  0.99837000  0.55213000  0.64093000  1.0
  N  N245  1  0.66503000  0.88547000  0.97427000  1.0
  N  N246  1  0.78120000  0.11290000  0.30760000  1.0
  N  N247  1  0.44787000  0.44623000  0.64093000  1.0
  N  N248  1  0.11453000  0.77957000  0.97427000  1.0
  N  N249  1  0.88710000  0.66830000  0.30760000  1.0
  N  N250  1  0.55377000  0.00163000  0.64093000  1.0
  N  N251  1  0.22043000  0.33497000  0.97427000  1.0
  N  N252  1  0.21880000  0.33170000  0.69240000  1.0
  N  N253  1  0.88547000  0.66503000  0.02573000  1.0
  N  N254  1  0.55213000  0.99837000  0.35907000  1.0
  N  N255  1  0.11290000  0.78120000  0.69240000  1.0
  N  N256  1  0.77957000  0.11453000  0.02573000  1.0
  N  N257  1  0.44623000  0.44787000  0.35907000  1.0
  N  N258  1  0.66830000  0.88710000  0.69240000  1.0
  N  N259  1  0.33497000  0.22043000  0.02573000  1.0
  N  N260  1  0.00163000  0.55377000  0.35907000  1.0
  N  N261  1  0.66830000  0.78120000  0.69240000  1.0
  N  N262  1  0.33497000  0.11453000  0.02573000  1.0
  N  N263  1  0.00163000  0.44787000  0.35907000  1.0
  N  N264  1  0.21880000  0.88710000  0.69240000  1.0
  N  N265  1  0.88547000  0.22043000  0.02573000  1.0
  N  N266  1  0.55213000  0.55377000  0.35907000  1.0
  N  N267  1  0.11290000  0.33170000  0.69240000  1.0
  N  N268  1  0.77957000  0.66503000  0.02573000  1.0
  N  N269  1  0.44623000  0.99837000  0.35907000  1.0
  N  N270  1  0.78120000  0.66830000  0.30760000  1.0
  N  N271  1  0.44787000  0.00163000  0.64093000  1.0
  N  N272  1  0.11453000  0.33497000  0.97427000  1.0
  N  N273  1  0.88710000  0.21880000  0.30760000  1.0
  N  N274  1  0.55377000  0.55213000  0.64093000  1.0
  N  N275  1  0.22043000  0.88547000  0.97427000  1.0
  N  N276  1  0.33170000  0.11290000  0.30760000  1.0
  N  N277  1  0.99837000  0.44623000  0.64093000  1.0
  N  N278  1  0.66503000  0.77957000  0.97427000  1.0
  N  N279  1  0.42100000  0.21050000  0.17330000  1.0
  N  N280  1  0.08767000  0.54383000  0.50663000  1.0
  N  N281  1  0.75433000  0.87717000  0.83997000  1.0
  N  N282  1  0.78950000  0.21050000  0.17330000  1.0
  N  N283  1  0.45617000  0.54383000  0.50663000  1.0
  N  N284  1  0.12283000  0.87717000  0.83997000  1.0
  N  N285  1  0.78950000  0.57900000  0.17330000  1.0
  N  N286  1  0.45617000  0.91233000  0.50663000  1.0
  N  N287  1  0.12283000  0.24567000  0.83997000  1.0
  N  N288  1  0.21050000  0.42100000  0.82670000  1.0
  N  N289  1  0.87717000  0.75433000  0.16003000  1.0
  N  N290  1  0.54383000  0.08767000  0.49337000  1.0
  N  N291  1  0.21050000  0.78950000  0.82670000  1.0
  N  N292  1  0.87717000  0.12283000  0.16003000  1.0
  N  N293  1  0.54383000  0.45617000  0.49337000  1.0
  N  N294  1  0.57900000  0.78950000  0.82670000  1.0
  N  N295  1  0.24567000  0.12283000  0.16003000  1.0
  N  N296  1  0.91233000  0.45617000  0.49337000  1.0
  N  N297  1  0.63614000  0.36386000  0.16540000  1.0
  N  N298  1  0.30281000  0.69719000  0.49873000  1.0
  N  N299  1  0.96947000  0.03053000  0.83207000  1.0
  N  N300  1  0.63614000  0.27228000  0.16540000  1.0
  N  N301  1  0.30281000  0.60561000  0.49873000  1.0
  N  N302  1  0.96947000  0.93895000  0.83207000  1.0
  N  N303  1  0.72772000  0.36386000  0.16540000  1.0
  N  N304  1  0.39439000  0.69719000  0.49873000  1.0
  N  N305  1  0.06105000  0.03053000  0.83207000  1.0
  N  N306  1  0.36386000  0.63614000  0.83460000  1.0
  N  N307  1  0.03053000  0.96947000  0.16793000  1.0
  N  N308  1  0.69719000  0.30281000  0.50127000  1.0
  N  N309  1  0.27228000  0.63614000  0.83460000  1.0
  N  N310  1  0.93895000  0.96947000  0.16793000  1.0
  N  N311  1  0.60561000  0.30281000  0.50127000  1.0
  N  N312  1  0.36386000  0.72772000  0.83460000  1.0
  N  N313  1  0.03053000  0.06105000  0.16793000  1.0
  N  N314  1  0.69719000  0.39439000  0.50127000  1.0
