# generated using pymatgen
data_Gd2CuH4C10N4O9
_symmetry_space_group_name_H-M   'P 1'
_cell_length_a   6.99970000
_cell_length_b   16.05970000
_cell_length_c   16.05970000
_cell_angle_alpha   62.07350000
_cell_angle_beta   81.64620000
_cell_angle_gamma   98.35380000
_symmetry_Int_Tables_number   1
_chemical_formula_structural   Gd2CuH4C10N4O9
_chemical_formula_sum   'Gd6 Cu3 H12 C30 N12 O27'
_cell_volume   1530.45197302
_cell_formula_units_Z   3
loop_
 _symmetry_equiv_pos_site_id
 _symmetry_equiv_pos_as_xyz
  1  'x, y, z'
loop_
 _atom_site_type_symbol
 _atom_site_label
 _atom_site_symmetry_multiplicity
 _atom_site_fract_x
 _atom_site_fract_y
 _atom_site_fract_z
 _atom_site_occupancy
  Gd  Gd0  1  0.27787000  0.91304000  0.93372000  1.0
  Gd  Gd1  1  0.21159000  0.93372000  0.15324000  1.0
  Gd  Gd2  1  0.36483000  0.15324000  0.91304000  1.0
  Gd  Gd3  1  0.72213000  0.08696000  0.06628000  1.0
  Gd  Gd4  1  0.78841000  0.06628000  0.84676000  1.0
  Gd  Gd5  1  0.63517000  0.84676000  0.08696000  1.0
  Cu  Cu6  1  0.00000000  0.50000000  0.00000000  1.0
  Cu  Cu7  1  0.00000000  0.00000000  0.50000000  1.0
  Cu  Cu8  1  0.50000000  0.50000000  0.50000000  1.0
  H  H9  1  0.56580000  0.48830000  0.08900000  1.0
  H  H10  1  0.41740000  0.59340000  0.11970000  1.0
  H  H11  1  0.65480000  0.08900000  0.42270000  1.0
  H  H12  1  0.53710000  0.11970000  0.28690000  1.0
  H  H13  1  0.07750000  0.42270000  0.48830000  1.0
  H  H14  1  0.82400000  0.28690000  0.59340000  1.0
  H  H15  1  0.43420000  0.51170000  0.91100000  1.0
  H  H16  1  0.58260000  0.40660000  0.88030000  1.0
  H  H17  1  0.34520000  0.91100000  0.57730000  1.0
  H  H18  1  0.46290000  0.88030000  0.71310000  1.0
  H  H19  1  0.92250000  0.57730000  0.51170000  1.0
  H  H20  1  0.17600000  0.71310000  0.40660000  1.0
  C  C21  1  0.94610000  0.66160000  0.01090000  1.0
  C  C22  1  0.64130000  0.54850000  0.07360000  1.0
  C  C23  1  0.16260000  0.67990000  0.96620000  1.0
  C  C24  1  0.55330000  0.61180000  0.09160000  1.0
  C  C25  1  0.85430000  0.72780000  0.02700000  1.0
  C  C26  1  0.95700000  0.01090000  0.32750000  1.0
  C  C27  1  0.71490000  0.07360000  0.37790000  1.0
  C  C28  1  0.12880000  0.96620000  0.35390000  1.0
  C  C29  1  0.64490000  0.09160000  0.29660000  1.0
  C  C30  1  0.88130000  0.02700000  0.24520000  1.0
  C  C31  1  0.28450000  0.32750000  0.66160000  1.0
  C  C32  1  0.09280000  0.37790000  0.54850000  1.0
  C  C33  1  0.48270000  0.35390000  0.67990000  1.0
  C  C34  1  0.94150000  0.29660000  0.61180000  1.0
  C  C35  1  0.12650000  0.24520000  0.72780000  1.0
  C  C36  1  0.05390000  0.33840000  0.98910000  1.0
  C  C37  1  0.35870000  0.45150000  0.92640000  1.0
  C  C38  1  0.83740000  0.32010000  0.03380000  1.0
  C  C39  1  0.44670000  0.38820000  0.90840000  1.0
  C  C40  1  0.14570000  0.27220000  0.97300000  1.0
  C  C41  1  0.04300000  0.98910000  0.67250000  1.0
  C  C42  1  0.28510000  0.92640000  0.62210000  1.0
  C  C43  1  0.87120000  0.03380000  0.64610000  1.0
  C  C44  1  0.35510000  0.90840000  0.70340000  1.0
  C  C45  1  0.11870000  0.97300000  0.75480000  1.0
  C  C46  1  0.71550000  0.67250000  0.33840000  1.0
  C  C47  1  0.90720000  0.62210000  0.45150000  1.0
  C  C48  1  0.51730000  0.64610000  0.32010000  1.0
  C  C49  1  0.05850000  0.70340000  0.38820000  1.0
  C  C50  1  0.87350000  0.75480000  0.27220000  1.0
  N  N51  1  0.83670000  0.57470000  0.03380000  1.0
  N  N52  1  0.65680000  0.69730000  0.07000000  1.0
  N  N53  1  0.87050000  0.03380000  0.39150000  1.0
  N  N54  1  0.72680000  0.07000000  0.23270000  1.0
  N  N55  1  0.26200000  0.39150000  0.57470000  1.0
  N  N56  1  0.95950000  0.23270000  0.69730000  1.0
  N  N57  1  0.16330000  0.42530000  0.96620000  1.0
  N  N58  1  0.34320000  0.30270000  0.93000000  1.0
  N  N59  1  0.12950000  0.96620000  0.60850000  1.0
  N  N60  1  0.27320000  0.93000000  0.76730000  1.0
  N  N61  1  0.73800000  0.60850000  0.42530000  1.0
  N  N62  1  0.04050000  0.76730000  0.30270000  1.0
  O  O63  1  0.94290000  0.81260000  0.00620000  1.0
  O  O64  1  0.27920000  0.75660000  0.94450000  1.0
  O  O65  1  0.21530000  0.61330000  0.95480000  1.0
  O  O66  1  0.29190000  0.82200000  0.09840000  1.0
  O  O67  1  0.94910000  0.00620000  0.18120000  1.0
  O  O68  1  0.22370000  0.94450000  0.29890000  1.0
  O  O69  1  0.17010000  0.95480000  0.43190000  1.0
  O  O70  1  0.39030000  0.09840000  0.07960000  1.0
  O  O71  1  0.13030000  0.18120000  0.81260000  1.0
  O  O72  1  0.52260000  0.29890000  0.75660000  1.0
  O  O73  1  0.60200000  0.43190000  0.61330000  1.0
  O  O74  1  0.46990000  0.07960000  0.82200000  1.0
  O  O75  1  0.05710000  0.18740000  0.99380000  1.0
  O  O76  1  0.72080000  0.24340000  0.05550000  1.0
  O  O77  1  0.78470000  0.38670000  0.04520000  1.0
  O  O78  1  0.70810000  0.17800000  0.90160000  1.0
  O  O79  1  0.05090000  0.99380000  0.81880000  1.0
  O  O80  1  0.77630000  0.05550000  0.70110000  1.0
  O  O81  1  0.82990000  0.04520000  0.56810000  1.0
  O  O82  1  0.60970000  0.90160000  0.92040000  1.0
  O  O83  1  0.86970000  0.81880000  0.18740000  1.0
  O  O84  1  0.47740000  0.70110000  0.24340000  1.0
  O  O85  1  0.39800000  0.56810000  0.38670000  1.0
  O  O86  1  0.53010000  0.92040000  0.17800000  1.0
  O  O87  1  0.50000000  0.00000000  0.00000000  1.0
  O  O88  1  0.17533000  0.00000000  0.00000000  1.0
  O  O89  1  0.82467000  0.00000000  0.00000000  1.0
