# generated using pymatgen
data_ErH3(CO2)3
_symmetry_space_group_name_H-M   'P 1'
_cell_length_a   6.54700000
_cell_length_b   6.63230000
_cell_length_c   6.63230000
_cell_angle_alpha   115.20500000
_cell_angle_beta   106.37100000
_cell_angle_gamma   73.62930000
_symmetry_Int_Tables_number   1
_chemical_formula_structural   ErH3(CO2)3
_chemical_formula_sum   'Er1 H3 C3 O6'
_cell_volume   245.62035755
_cell_formula_units_Z   1
loop_
 _symmetry_equiv_pos_site_id
 _symmetry_equiv_pos_as_xyz
  1  'x, y, z'
loop_
 _atom_site_type_symbol
 _atom_site_label
 _atom_site_symmetry_multiplicity
 _atom_site_fract_x
 _atom_site_fract_y
 _atom_site_fract_z
 _atom_site_occupancy
  Er  Er0  1  0.00000000  0.00000000  0.00000000  1.0
  H  H1  1  0.11600000  0.84300000  0.46100000  1.0
  H  H2  1  0.88400000  0.46100000  0.84300000  1.0
  H  H3  1  0.50000000  0.07000000  0.07000000  1.0
  C  C4  1  0.96660000  0.93740000  0.46860000  1.0
  C  C5  1  0.03340000  0.46860000  0.93740000  1.0
  C  C6  1  0.50000000  0.93440000  0.93440000  1.0
  O  O7  1  0.87920000  0.00450000  0.31330000  1.0
  O  O8  1  0.88490000  0.97530000  0.63110000  1.0
  O  O9  1  0.66510000  0.86070000  0.84610000  1.0
  O  O10  1  0.12080000  0.31330000  0.00450000  1.0
  O  O11  1  0.11510000  0.63110000  0.97530000  1.0
  O  O12  1  0.33490000  0.84610000  0.86070000  1.0
