# generated using pymatgen
data_DyH3(CO2)3
_symmetry_space_group_name_H-M   'P 1'
_cell_length_a   6.59200000
_cell_length_b   6.68620000
_cell_length_c   6.68620000
_cell_angle_alpha   115.36500000
_cell_angle_beta   106.43500000
_cell_angle_gamma   73.56460000
_symmetry_Int_Tables_number   1
_chemical_formula_structural   DyH3(CO2)3
_chemical_formula_sum   'Dy1 H3 C3 O6'
_cell_volume   250.92075870
_cell_formula_units_Z   1
loop_
 _symmetry_equiv_pos_site_id
 _symmetry_equiv_pos_as_xyz
  1  'x, y, z'
loop_
 _atom_site_type_symbol
 _atom_site_label
 _atom_site_symmetry_multiplicity
 _atom_site_fract_x
 _atom_site_fract_y
 _atom_site_fract_z
 _atom_site_occupancy
  Dy  Dy0  1  0.00000000  0.00000000  0.00000000  1.0
  H  H1  1  0.88600000  0.46400000  0.84600000  1.0
  H  H2  1  0.11400000  0.84600000  0.46400000  1.0
  H  H3  1  0.50000000  0.07000000  0.07000000  1.0
  C  C4  1  0.03490000  0.46770000  0.93770000  1.0
  C  C5  1  0.96510000  0.93770000  0.46770000  1.0
  C  C6  1  0.50000000  0.92990000  0.92990000  1.0
  O  O7  1  0.12030000  0.31120000  0.00380000  1.0
  O  O8  1  0.11680000  0.62980000  0.97480000  1.0
  O  O9  1  0.66330000  0.85930000  0.84490000  1.0
  O  O10  1  0.87970000  0.00380000  0.31120000  1.0
  O  O11  1  0.88320000  0.97480000  0.62980000  1.0
  O  O12  1  0.33670000  0.84490000  0.85930000  1.0
