# generated using pymatgen
data_Gd3PH9C11NO19
_symmetry_space_group_name_H-M   'P 1'
_cell_length_a   10.24810000
_cell_length_b   15.06970000
_cell_length_c   22.39100000
_cell_angle_alpha   90.00000000
_cell_angle_beta   90.00000000
_cell_angle_gamma   108.02000000
_symmetry_Int_Tables_number   1
_chemical_formula_structural   Gd3PH9C11NO19
_chemical_formula_sum   'Gd12 P4 H36 C44 N4 O76'
_cell_volume   3288.35344108
_cell_formula_units_Z   4
loop_
 _symmetry_equiv_pos_site_id
 _symmetry_equiv_pos_as_xyz
  1  'x, y, z'
loop_
 _atom_site_type_symbol
 _atom_site_label
 _atom_site_symmetry_multiplicity
 _atom_site_fract_x
 _atom_site_fract_y
 _atom_site_fract_z
 _atom_site_occupancy
  Gd  Gd0  1  0.03392000  0.50113000  0.14153000  1.0
  Gd  Gd1  1  0.42225000  0.25061000  0.15503000  1.0
  Gd  Gd2  1  0.24278000  0.90998000  0.01341000  1.0
  Gd  Gd3  1  0.46608000  0.99887000  0.64153000  1.0
  Gd  Gd4  1  0.07775000  0.24939000  0.65503000  1.0
  Gd  Gd5  1  0.25722000  0.59002000  0.51341000  1.0
  Gd  Gd6  1  0.96608000  0.49887000  0.85847000  1.0
  Gd  Gd7  1  0.57775000  0.74939000  0.84497000  1.0
  Gd  Gd8  1  0.75722000  0.09002000  0.98659000  1.0
  Gd  Gd9  1  0.53392000  0.00113000  0.35847000  1.0
  Gd  Gd10  1  0.92225000  0.75061000  0.34497000  1.0
  Gd  Gd11  1  0.74278000  0.40998000  0.48659000  1.0
  P  P12  1  0.45460000  0.15792000  0.00694000  1.0
  P  P13  1  0.04540000  0.34208000  0.50694000  1.0
  P  P14  1  0.54540000  0.84208000  0.99306000  1.0
  P  P15  1  0.95460000  0.65792000  0.49306000  1.0
  H  H16  1  0.35870000  0.31290000  0.00950000  1.0
  H  H17  1  0.26810000  0.17650000  0.95580000  1.0
  H  H18  1  0.39990000  0.21250000  0.91650000  1.0
  H  H19  1  0.58280000  0.33940000  0.97350000  1.0
  H  H20  1  0.53300000  0.36270000  0.91100000  1.0
  H  H21  1  0.53720000  0.42880000  0.96550000  1.0
  H  H22  1  0.18780000  0.31640000  0.94780000  1.0
  H  H23  1  0.30180000  0.41370000  0.95090000  1.0
  H  H24  1  0.29600000  0.34750000  0.89630000  1.0
  H  H25  1  0.14130000  0.18710000  0.50950000  1.0
  H  H26  1  0.23190000  0.32350000  0.45580000  1.0
  H  H27  1  0.10010000  0.28750000  0.41650000  1.0
  H  H28  1  0.91720000  0.16060000  0.47350000  1.0
  H  H29  1  0.96700000  0.13730000  0.41100000  1.0
  H  H30  1  0.96280000  0.07120000  0.46550000  1.0
  H  H31  1  0.31220000  0.18360000  0.44780000  1.0
  H  H32  1  0.19820000  0.08630000  0.45090000  1.0
  H  H33  1  0.20400000  0.15250000  0.39630000  1.0
  H  H34  1  0.64130000  0.68710000  0.99050000  1.0
  H  H35  1  0.73190000  0.82350000  0.04420000  1.0
  H  H36  1  0.60010000  0.78750000  0.08350000  1.0
  H  H37  1  0.41720000  0.66060000  0.02650000  1.0
  H  H38  1  0.46700000  0.63730000  0.08900000  1.0
  H  H39  1  0.46280000  0.57120000  0.03450000  1.0
  H  H40  1  0.81220000  0.68360000  0.05220000  1.0
  H  H41  1  0.69820000  0.58630000  0.04910000  1.0
  H  H42  1  0.70400000  0.65250000  0.10370000  1.0
  H  H43  1  0.85870000  0.81290000  0.49050000  1.0
  H  H44  1  0.76810000  0.67650000  0.54420000  1.0
  H  H45  1  0.89990000  0.71250000  0.58350000  1.0
  H  H46  1  0.08280000  0.83940000  0.52650000  1.0
  H  H47  1  0.03300000  0.86270000  0.58900000  1.0
  H  H48  1  0.03720000  0.92880000  0.53450000  1.0
  H  H49  1  0.68780000  0.81640000  0.55220000  1.0
  H  H50  1  0.80180000  0.91370000  0.54910000  1.0
  H  H51  1  0.79600000  0.84750000  0.60370000  1.0
  C  C52  1  0.22530000  0.37440000  0.18020000  1.0
  C  C53  1  0.24780000  0.38600000  0.11230000  1.0
  C  C54  1  0.98180000  0.66760000  0.22010000  1.0
  C  C55  1  0.95840000  0.58440000  0.26430000  1.0
  C  C56  1  0.75170000  0.33350000  0.16260000  1.0
  C  C57  1  0.70690000  0.42150000  0.15060000  1.0
  C  C58  1  0.95730000  0.44740000  0.00030000  1.0
  C  C59  1  0.99330000  0.00160000  0.03470000  1.0
  C  C60  1  0.36390000  0.21390000  0.95640000  1.0
  C  C61  1  0.52000000  0.36510000  0.95330000  1.0
  C  C62  1  0.28200000  0.34990000  0.93860000  1.0
  C  C63  1  0.27470000  0.12560000  0.68020000  1.0
  C  C64  1  0.25220000  0.11400000  0.61230000  1.0
  C  C65  1  0.51820000  0.83240000  0.72010000  1.0
  C  C66  1  0.54160000  0.91560000  0.76430000  1.0
  C  C67  1  0.74830000  0.16650000  0.66260000  1.0
  C  C68  1  0.79310000  0.07850000  0.65060000  1.0
  C  C69  1  0.54270000  0.05260000  0.50030000  1.0
  C  C70  1  0.50670000  0.49840000  0.53470000  1.0
  C  C71  1  0.13610000  0.28610000  0.45640000  1.0
  C  C72  1  0.98000000  0.13490000  0.45330000  1.0
  C  C73  1  0.21800000  0.15010000  0.43860000  1.0
  C  C74  1  0.77470000  0.62560000  0.81980000  1.0
  C  C75  1  0.75220000  0.61400000  0.88770000  1.0
  C  C76  1  0.01820000  0.33240000  0.77990000  1.0
  C  C77  1  0.04160000  0.41560000  0.73570000  1.0
  C  C78  1  0.24830000  0.66650000  0.83740000  1.0
  C  C79  1  0.29310000  0.57850000  0.84940000  1.0
  C  C80  1  0.04270000  0.55260000  0.99970000  1.0
  C  C81  1  0.00670000  0.99840000  0.96530000  1.0
  C  C82  1  0.63610000  0.78610000  0.04360000  1.0
  C  C83  1  0.48000000  0.63490000  0.04670000  1.0
  C  C84  1  0.71800000  0.65010000  0.06140000  1.0
  C  C85  1  0.72530000  0.87440000  0.31980000  1.0
  C  C86  1  0.74780000  0.88600000  0.38770000  1.0
  C  C87  1  0.48180000  0.16760000  0.27990000  1.0
  C  C88  1  0.45840000  0.08440000  0.23570000  1.0
  C  C89  1  0.25170000  0.83350000  0.33740000  1.0
  C  C90  1  0.20690000  0.92150000  0.34940000  1.0
  C  C91  1  0.45730000  0.94740000  0.49970000  1.0
  C  C92  1  0.49330000  0.50160000  0.46530000  1.0
  C  C93  1  0.86390000  0.71390000  0.54360000  1.0
  C  C94  1  0.02000000  0.86510000  0.54670000  1.0
  C  C95  1  0.78200000  0.84990000  0.56140000  1.0
  N  N96  1  0.37060000  0.30790000  0.96950000  1.0
  N  N97  1  0.12940000  0.19210000  0.46950000  1.0
  N  N98  1  0.62940000  0.69210000  0.03050000  1.0
  N  N99  1  0.87060000  0.80790000  0.53050000  1.0
  O  O100  1  0.28300000  0.32490000  0.20700000  1.0
  O  O101  1  0.14890000  0.41640000  0.20300000  1.0
  O  O102  1  0.19290000  0.43860000  0.08620000  1.0
  O  O103  1  0.32050000  0.34150000  0.08940000  1.0
  O  O104  1  0.95760000  0.73870000  0.23860000  1.0
  O  O105  1  0.02130000  0.65550000  0.16870000  1.0
  O  O106  1  0.92260000  0.59790000  0.31620000  1.0
  O  O107  1  0.98130000  0.51330000  0.24580000  1.0
  O  O108  1  0.57660000  0.40550000  0.15260000  1.0
  O  O109  1  0.79540000  0.49590000  0.14150000  1.0
  O  O110  1  0.66050000  0.25600000  0.16640000  1.0
  O  O111  1  0.87980000  0.34740000  0.16770000  1.0
  O  O112  1  0.92390000  0.41040000  0.04920000  1.0
  O  O113  1  0.92940000  0.40860000  0.94950000  1.0
  O  O114  1  0.07210000  0.96760000  0.06460000  1.0
  O  O115  1  0.91020000  0.03840000  0.05480000  1.0
  O  O116  1  0.35770000  0.06280000  0.01530000  1.0
  O  O117  1  0.58970000  0.16010000  0.98040000  1.0
  O  O118  1  0.47190000  0.21470000  0.06350000  1.0
  O  O119  1  0.21700000  0.17510000  0.70700000  1.0
  O  O120  1  0.35110000  0.08360000  0.70300000  1.0
  O  O121  1  0.30710000  0.06140000  0.58620000  1.0
  O  O122  1  0.17950000  0.15850000  0.58940000  1.0
  O  O123  1  0.54240000  0.76130000  0.73860000  1.0
  O  O124  1  0.47870000  0.84450000  0.66870000  1.0
  O  O125  1  0.57740000  0.90210000  0.81620000  1.0
  O  O126  1  0.51870000  0.98670000  0.74580000  1.0
  O  O127  1  0.92340000  0.09450000  0.65260000  1.0
  O  O128  1  0.70460000  0.00410000  0.64150000  1.0
  O  O129  1  0.83950000  0.24400000  0.66640000  1.0
  O  O130  1  0.62020000  0.15260000  0.66770000  1.0
  O  O131  1  0.57610000  0.08960000  0.54920000  1.0
  O  O132  1  0.57060000  0.09140000  0.44950000  1.0
  O  O133  1  0.42790000  0.53240000  0.56460000  1.0
  O  O134  1  0.58980000  0.46160000  0.55480000  1.0
  O  O135  1  0.14230000  0.43720000  0.51530000  1.0
  O  O136  1  0.91030000  0.33990000  0.48040000  1.0
  O  O137  1  0.02810000  0.28530000  0.56350000  1.0
  O  O138  1  0.71700000  0.67510000  0.79300000  1.0
  O  O139  1  0.85110000  0.58360000  0.79700000  1.0
  O  O140  1  0.80710000  0.56140000  0.91380000  1.0
  O  O141  1  0.67950000  0.65850000  0.91060000  1.0
  O  O142  1  0.04240000  0.26130000  0.76140000  1.0
  O  O143  1  0.97870000  0.34450000  0.83130000  1.0
  O  O144  1  0.07740000  0.40210000  0.68380000  1.0
  O  O145  1  0.01870000  0.48670000  0.75420000  1.0
  O  O146  1  0.42340000  0.59450000  0.84740000  1.0
  O  O147  1  0.20460000  0.50410000  0.85850000  1.0
  O  O148  1  0.33950000  0.74400000  0.83360000  1.0
  O  O149  1  0.12020000  0.65260000  0.83230000  1.0
  O  O150  1  0.07610000  0.58960000  0.95080000  1.0
  O  O151  1  0.07060000  0.59140000  0.05050000  1.0
  O  O152  1  0.92790000  0.03240000  0.93540000  1.0
  O  O153  1  0.08980000  0.96160000  0.94520000  1.0
  O  O154  1  0.64230000  0.93720000  0.98470000  1.0
  O  O155  1  0.41030000  0.83990000  0.01960000  1.0
  O  O156  1  0.52810000  0.78530000  0.93650000  1.0
  O  O157  1  0.78300000  0.82490000  0.29300000  1.0
  O  O158  1  0.64890000  0.91640000  0.29700000  1.0
  O  O159  1  0.69290000  0.93860000  0.41380000  1.0
  O  O160  1  0.82050000  0.84150000  0.41060000  1.0
  O  O161  1  0.45760000  0.23870000  0.26140000  1.0
  O  O162  1  0.52130000  0.15550000  0.33130000  1.0
  O  O163  1  0.42260000  0.09790000  0.18380000  1.0
  O  O164  1  0.48130000  0.01330000  0.25420000  1.0
  O  O165  1  0.07660000  0.90550000  0.34740000  1.0
  O  O166  1  0.29540000  0.99590000  0.35850000  1.0
  O  O167  1  0.16050000  0.75600000  0.33360000  1.0
  O  O168  1  0.37980000  0.84740000  0.33230000  1.0
  O  O169  1  0.42390000  0.91040000  0.45080000  1.0
  O  O170  1  0.42940000  0.90860000  0.55050000  1.0
  O  O171  1  0.57210000  0.46760000  0.43540000  1.0
  O  O172  1  0.41020000  0.53840000  0.44520000  1.0
  O  O173  1  0.85770000  0.56280000  0.48470000  1.0
  O  O174  1  0.08970000  0.66010000  0.51960000  1.0
  O  O175  1  0.97190000  0.71470000  0.43650000  1.0
