# generated using pymatgen
data_ZnH12C18(NO2)2
_symmetry_space_group_name_H-M   'P 1'
_cell_length_a   27.81140000
_cell_length_b   27.81140000
_cell_length_c   3.68990000
_cell_angle_alpha   90.00000000
_cell_angle_beta   90.00000000
_cell_angle_gamma   90.00000000
_symmetry_Int_Tables_number   1
_chemical_formula_structural   ZnH12C18(NO2)2
_chemical_formula_sum   'Zn8 H96 C144 N16 O32'
_cell_volume   2854.04160176
_cell_formula_units_Z   8
loop_
 _symmetry_equiv_pos_site_id
 _symmetry_equiv_pos_as_xyz
  1  'x, y, z'
loop_
 _atom_site_type_symbol
 _atom_site_label
 _atom_site_symmetry_multiplicity
 _atom_site_fract_x
 _atom_site_fract_y
 _atom_site_fract_z
 _atom_site_occupancy
  Zn  Zn0  1  0.28362000  0.21399000  0.86440000  1.0
  Zn  Zn1  1  0.71638000  0.78601000  0.86440000  1.0
  Zn  Zn2  1  0.71399000  0.21638000  0.63560000  1.0
  Zn  Zn3  1  0.28601000  0.78362000  0.63560000  1.0
  Zn  Zn4  1  0.78362000  0.71399000  0.36440000  1.0
  Zn  Zn5  1  0.21638000  0.28601000  0.36440000  1.0
  Zn  Zn6  1  0.21399000  0.71638000  0.13560000  1.0
  Zn  Zn7  1  0.78601000  0.28362000  0.13560000  1.0
  H  H8  1  0.31000000  0.10940000  0.07170000  1.0
  H  H9  1  0.18110000  0.18520000  0.42030000  1.0
  H  H10  1  0.10410000  0.18140000  0.12570000  1.0
  H  H11  1  0.03550000  0.13960000  0.95030000  1.0
  H  H12  1  0.03070000  0.05820000  0.10370000  1.0
  H  H13  1  0.09180000  0.02090000  0.41400000  1.0
  H  H14  1  0.16880000  0.02190000  0.70430000  1.0
  H  H15  1  0.22170000  0.92330000  0.38720000  1.0
  H  H16  1  0.36030000  0.95390000  0.18420000  1.0
  H  H17  1  0.33830000  0.02970000  0.97930000  1.0
  H  H18  1  0.19970000  0.99910000  0.18230000  1.0
  H  H19  1  0.30850000  0.23450000  0.25820000  1.0
  H  H20  1  0.69000000  0.89060000  0.07170000  1.0
  H  H21  1  0.81890000  0.81480000  0.42030000  1.0
  H  H22  1  0.89590000  0.81860000  0.12570000  1.0
  H  H23  1  0.96450000  0.86040000  0.95030000  1.0
  H  H24  1  0.96930000  0.94180000  0.10370000  1.0
  H  H25  1  0.90820000  0.97910000  0.41400000  1.0
  H  H26  1  0.83120000  0.97810000  0.70430000  1.0
  H  H27  1  0.77830000  0.07670000  0.38720000  1.0
  H  H28  1  0.63970000  0.04610000  0.18420000  1.0
  H  H29  1  0.66170000  0.97030000  0.97930000  1.0
  H  H30  1  0.80030000  0.00090000  0.18230000  1.0
  H  H31  1  0.69150000  0.76550000  0.25820000  1.0
  H  H32  1  0.60940000  0.19000000  0.42830000  1.0
  H  H33  1  0.68520000  0.31890000  0.07970000  1.0
  H  H34  1  0.68140000  0.39590000  0.37430000  1.0
  H  H35  1  0.63960000  0.46450000  0.54970000  1.0
  H  H36  1  0.55820000  0.46930000  0.39630000  1.0
  H  H37  1  0.52090000  0.40820000  0.08600000  1.0
  H  H38  1  0.52190000  0.33120000  0.79570000  1.0
  H  H39  1  0.42330000  0.27830000  0.11280000  1.0
  H  H40  1  0.45390000  0.13970000  0.31580000  1.0
  H  H41  1  0.52970000  0.16170000  0.52070000  1.0
  H  H42  1  0.49910000  0.30030000  0.31770000  1.0
  H  H43  1  0.73450000  0.19150000  0.24180000  1.0
  H  H44  1  0.39060000  0.81000000  0.42830000  1.0
  H  H45  1  0.31480000  0.68110000  0.07970000  1.0
  H  H46  1  0.31860000  0.60410000  0.37430000  1.0
  H  H47  1  0.36040000  0.53550000  0.54970000  1.0
  H  H48  1  0.44180000  0.53070000  0.39630000  1.0
  H  H49  1  0.47910000  0.59180000  0.08600000  1.0
  H  H50  1  0.47810000  0.66880000  0.79570000  1.0
  H  H51  1  0.57670000  0.72170000  0.11280000  1.0
  H  H52  1  0.54610000  0.86030000  0.31580000  1.0
  H  H53  1  0.47030000  0.83830000  0.52070000  1.0
  H  H54  1  0.50090000  0.69970000  0.31770000  1.0
  H  H55  1  0.26550000  0.80850000  0.24180000  1.0
  H  H56  1  0.81000000  0.60940000  0.57170000  1.0
  H  H57  1  0.68110000  0.68520000  0.92030000  1.0
  H  H58  1  0.60410000  0.68140000  0.62570000  1.0
  H  H59  1  0.53550000  0.63960000  0.45030000  1.0
  H  H60  1  0.53070000  0.55820000  0.60370000  1.0
  H  H61  1  0.59180000  0.52090000  0.91400000  1.0
  H  H62  1  0.66880000  0.52190000  0.20430000  1.0
  H  H63  1  0.72170000  0.42330000  0.88720000  1.0
  H  H64  1  0.86030000  0.45390000  0.68420000  1.0
  H  H65  1  0.83830000  0.52970000  0.47930000  1.0
  H  H66  1  0.69970000  0.49910000  0.68230000  1.0
  H  H67  1  0.80850000  0.73450000  0.75820000  1.0
  H  H68  1  0.19000000  0.39060000  0.57170000  1.0
  H  H69  1  0.31890000  0.31480000  0.92030000  1.0
  H  H70  1  0.39590000  0.31860000  0.62570000  1.0
  H  H71  1  0.46450000  0.36040000  0.45030000  1.0
  H  H72  1  0.46930000  0.44180000  0.60370000  1.0
  H  H73  1  0.40820000  0.47910000  0.91400000  1.0
  H  H74  1  0.33120000  0.47810000  0.20430000  1.0
  H  H75  1  0.27830000  0.57670000  0.88720000  1.0
  H  H76  1  0.13970000  0.54610000  0.68420000  1.0
  H  H77  1  0.16170000  0.47030000  0.47930000  1.0
  H  H78  1  0.30030000  0.50090000  0.68230000  1.0
  H  H79  1  0.19150000  0.26550000  0.75820000  1.0
  H  H80  1  0.10940000  0.69000000  0.92830000  1.0
  H  H81  1  0.18520000  0.81890000  0.57970000  1.0
  H  H82  1  0.18140000  0.89590000  0.87430000  1.0
  H  H83  1  0.13960000  0.96450000  0.04970000  1.0
  H  H84  1  0.05820000  0.96930000  0.89630000  1.0
  H  H85  1  0.02090000  0.90820000  0.58600000  1.0
  H  H86  1  0.02190000  0.83120000  0.29570000  1.0
  H  H87  1  0.92330000  0.77830000  0.61280000  1.0
  H  H88  1  0.95390000  0.63970000  0.81580000  1.0
  H  H89  1  0.02970000  0.66170000  0.02070000  1.0
  H  H90  1  0.99910000  0.80030000  0.81770000  1.0
  H  H91  1  0.23450000  0.69150000  0.74180000  1.0
  H  H92  1  0.89060000  0.31000000  0.92830000  1.0
  H  H93  1  0.81480000  0.18110000  0.57970000  1.0
  H  H94  1  0.81860000  0.10410000  0.87430000  1.0
  H  H95  1  0.86040000  0.03550000  0.04970000  1.0
  H  H96  1  0.94180000  0.03070000  0.89630000  1.0
  H  H97  1  0.97910000  0.09180000  0.58600000  1.0
  H  H98  1  0.97810000  0.16880000  0.29570000  1.0
  H  H99  1  0.07670000  0.22170000  0.61280000  1.0
  H  H100  1  0.04610000  0.36030000  0.81580000  1.0
  H  H101  1  0.97030000  0.33830000  0.02070000  1.0
  H  H102  1  0.00090000  0.19970000  0.81770000  1.0
  H  H103  1  0.76550000  0.30850000  0.74180000  1.0
  C  C104  1  0.28010000  0.10800000  0.95800000  1.0
  C  C105  1  0.21450000  0.12920000  0.66210000  1.0
  C  C106  1  0.17830000  0.15270000  0.47600000  1.0
  C  C107  1  0.13790000  0.12690000  0.37400000  1.0
  C  C108  1  0.10120000  0.14900000  0.18400000  1.0
  C  C109  1  0.06010000  0.12440000  0.07700000  1.0
  C  C110  1  0.05770000  0.07590000  0.17000000  1.0
  C  C111  1  0.09450000  0.05340000  0.35900000  1.0
  C  C112  1  0.13550000  0.07860000  0.46670000  1.0
  C  C113  1  0.17140000  0.05450000  0.65200000  1.0
  C  C114  1  0.21150000  0.08070000  0.75800000  1.0
  C  C115  1  0.24510000  0.94460000  0.30500000  1.0
  C  C116  1  0.29320000  0.93110000  0.30600000  1.0
  C  C117  1  0.32810000  0.96300000  0.18400000  1.0
  C  C118  1  0.31500000  0.00840000  0.06100000  1.0
  C  C119  1  0.26680000  0.02190000  0.06050000  1.0
  C  C120  1  0.23190000  0.99000000  0.18300000  1.0
  C  C121  1  0.30260000  0.88080000  0.44600000  1.0
  C  C122  1  0.71990000  0.89200000  0.95800000  1.0
  C  C123  1  0.78550000  0.87080000  0.66210000  1.0
  C  C124  1  0.82170000  0.84730000  0.47600000  1.0
  C  C125  1  0.86210000  0.87310000  0.37400000  1.0
  C  C126  1  0.89880000  0.85100000  0.18400000  1.0
  C  C127  1  0.93990000  0.87560000  0.07700000  1.0
  C  C128  1  0.94230000  0.92410000  0.17000000  1.0
  C  C129  1  0.90550000  0.94660000  0.35900000  1.0
  C  C130  1  0.86450000  0.92140000  0.46670000  1.0
  C  C131  1  0.82860000  0.94550000  0.65200000  1.0
  C  C132  1  0.78850000  0.91930000  0.75800000  1.0
  C  C133  1  0.75490000  0.05540000  0.30500000  1.0
  C  C134  1  0.70680000  0.06890000  0.30600000  1.0
  C  C135  1  0.67190000  0.03700000  0.18400000  1.0
  C  C136  1  0.68500000  0.99160000  0.06100000  1.0
  C  C137  1  0.73320000  0.97810000  0.06050000  1.0
  C  C138  1  0.76810000  0.01000000  0.18300000  1.0
  C  C139  1  0.69740000  0.11920000  0.44600000  1.0
  C  C140  1  0.60800000  0.21990000  0.54200000  1.0
  C  C141  1  0.62920000  0.28550000  0.83790000  1.0
  C  C142  1  0.65270000  0.32170000  0.02400000  1.0
  C  C143  1  0.62690000  0.36210000  0.12600000  1.0
  C  C144  1  0.64900000  0.39880000  0.31600000  1.0
  C  C145  1  0.62440000  0.43990000  0.42300000  1.0
  C  C146  1  0.57590000  0.44230000  0.33000000  1.0
  C  C147  1  0.55340000  0.40550000  0.14100000  1.0
  C  C148  1  0.57860000  0.36450000  0.03330000  1.0
  C  C149  1  0.55450000  0.32860000  0.84800000  1.0
  C  C150  1  0.58070000  0.28850000  0.74200000  1.0
  C  C151  1  0.44460000  0.25490000  0.19500000  1.0
  C  C152  1  0.43110000  0.20680000  0.19400000  1.0
  C  C153  1  0.46300000  0.17190000  0.31600000  1.0
  C  C154  1  0.50840000  0.18500000  0.43900000  1.0
  C  C155  1  0.52190000  0.23320000  0.43950000  1.0
  C  C156  1  0.49000000  0.26810000  0.31700000  1.0
  C  C157  1  0.38080000  0.19740000  0.05400000  1.0
  C  C158  1  0.39200000  0.78010000  0.54200000  1.0
  C  C159  1  0.37080000  0.71450000  0.83790000  1.0
  C  C160  1  0.34730000  0.67830000  0.02400000  1.0
  C  C161  1  0.37310000  0.63790000  0.12600000  1.0
  C  C162  1  0.35100000  0.60120000  0.31600000  1.0
  C  C163  1  0.37560000  0.56010000  0.42300000  1.0
  C  C164  1  0.42410000  0.55770000  0.33000000  1.0
  C  C165  1  0.44660000  0.59450000  0.14100000  1.0
  C  C166  1  0.42140000  0.63550000  0.03330000  1.0
  C  C167  1  0.44550000  0.67140000  0.84800000  1.0
  C  C168  1  0.41930000  0.71150000  0.74200000  1.0
  C  C169  1  0.55540000  0.74510000  0.19500000  1.0
  C  C170  1  0.56890000  0.79320000  0.19400000  1.0
  C  C171  1  0.53700000  0.82810000  0.31600000  1.0
  C  C172  1  0.49160000  0.81500000  0.43900000  1.0
  C  C173  1  0.47810000  0.76680000  0.43950000  1.0
  C  C174  1  0.51000000  0.73190000  0.31700000  1.0
  C  C175  1  0.61920000  0.80260000  0.05400000  1.0
  C  C176  1  0.78010000  0.60800000  0.45800000  1.0
  C  C177  1  0.71450000  0.62920000  0.16210000  1.0
  C  C178  1  0.67830000  0.65270000  0.97600000  1.0
  C  C179  1  0.63790000  0.62690000  0.87400000  1.0
  C  C180  1  0.60120000  0.64900000  0.68400000  1.0
  C  C181  1  0.56010000  0.62440000  0.57700000  1.0
  C  C182  1  0.55770000  0.57590000  0.67000000  1.0
  C  C183  1  0.59450000  0.55340000  0.85900000  1.0
  C  C184  1  0.63550000  0.57860000  0.96670000  1.0
  C  C185  1  0.67140000  0.55450000  0.15200000  1.0
  C  C186  1  0.71150000  0.58070000  0.25800000  1.0
  C  C187  1  0.74510000  0.44460000  0.80500000  1.0
  C  C188  1  0.79320000  0.43110000  0.80600000  1.0
  C  C189  1  0.82810000  0.46300000  0.68400000  1.0
  C  C190  1  0.81500000  0.50840000  0.56100000  1.0
  C  C191  1  0.76680000  0.52190000  0.56050000  1.0
  C  C192  1  0.73190000  0.49000000  0.68300000  1.0
  C  C193  1  0.80260000  0.38080000  0.94600000  1.0
  C  C194  1  0.21990000  0.39200000  0.45800000  1.0
  C  C195  1  0.28550000  0.37080000  0.16210000  1.0
  C  C196  1  0.32170000  0.34730000  0.97600000  1.0
  C  C197  1  0.36210000  0.37310000  0.87400000  1.0
  C  C198  1  0.39880000  0.35100000  0.68400000  1.0
  C  C199  1  0.43990000  0.37560000  0.57700000  1.0
  C  C200  1  0.44230000  0.42410000  0.67000000  1.0
  C  C201  1  0.40550000  0.44660000  0.85900000  1.0
  C  C202  1  0.36450000  0.42140000  0.96670000  1.0
  C  C203  1  0.32860000  0.44550000  0.15200000  1.0
  C  C204  1  0.28850000  0.41930000  0.25800000  1.0
  C  C205  1  0.25490000  0.55540000  0.80500000  1.0
  C  C206  1  0.20680000  0.56890000  0.80600000  1.0
  C  C207  1  0.17190000  0.53700000  0.68400000  1.0
  C  C208  1  0.18500000  0.49160000  0.56100000  1.0
  C  C209  1  0.23320000  0.47810000  0.56050000  1.0
  C  C210  1  0.26810000  0.51000000  0.68300000  1.0
  C  C211  1  0.19740000  0.61920000  0.94600000  1.0
  C  C212  1  0.10800000  0.71990000  0.04200000  1.0
  C  C213  1  0.12920000  0.78550000  0.33790000  1.0
  C  C214  1  0.15270000  0.82170000  0.52400000  1.0
  C  C215  1  0.12690000  0.86210000  0.62600000  1.0
  C  C216  1  0.14900000  0.89880000  0.81600000  1.0
  C  C217  1  0.12440000  0.93990000  0.92300000  1.0
  C  C218  1  0.07590000  0.94230000  0.83000000  1.0
  C  C219  1  0.05340000  0.90550000  0.64100000  1.0
  C  C220  1  0.07860000  0.86450000  0.53330000  1.0
  C  C221  1  0.05450000  0.82860000  0.34800000  1.0
  C  C222  1  0.08070000  0.78850000  0.24200000  1.0
  C  C223  1  0.94460000  0.75490000  0.69500000  1.0
  C  C224  1  0.93110000  0.70680000  0.69400000  1.0
  C  C225  1  0.96300000  0.67190000  0.81600000  1.0
  C  C226  1  0.00840000  0.68500000  0.93900000  1.0
  C  C227  1  0.02190000  0.73320000  0.93950000  1.0
  C  C228  1  0.99000000  0.76810000  0.81700000  1.0
  C  C229  1  0.88080000  0.69740000  0.55400000  1.0
  C  C230  1  0.89200000  0.28010000  0.04200000  1.0
  C  C231  1  0.87080000  0.21450000  0.33790000  1.0
  C  C232  1  0.84730000  0.17830000  0.52400000  1.0
  C  C233  1  0.87310000  0.13790000  0.62600000  1.0
  C  C234  1  0.85100000  0.10120000  0.81600000  1.0
  C  C235  1  0.87560000  0.06010000  0.92300000  1.0
  C  C236  1  0.92410000  0.05770000  0.83000000  1.0
  C  C237  1  0.94660000  0.09450000  0.64100000  1.0
  C  C238  1  0.92140000  0.13550000  0.53330000  1.0
  C  C239  1  0.94550000  0.17140000  0.34800000  1.0
  C  C240  1  0.91930000  0.21150000  0.24200000  1.0
  C  C241  1  0.05540000  0.24510000  0.69500000  1.0
  C  C242  1  0.06890000  0.29320000  0.69400000  1.0
  C  C243  1  0.03700000  0.32810000  0.81600000  1.0
  C  C244  1  0.99160000  0.31500000  0.93900000  1.0
  C  C245  1  0.97810000  0.26680000  0.93950000  1.0
  C  C246  1  0.01000000  0.23190000  0.81700000  1.0
  C  C247  1  0.11920000  0.30260000  0.55400000  1.0
  N  N248  1  0.25990000  0.14500000  0.80400000  1.0
  N  N249  1  0.25330000  0.06730000  0.93800000  1.0
  N  N250  1  0.74010000  0.85500000  0.80400000  1.0
  N  N251  1  0.74670000  0.93270000  0.93800000  1.0
  N  N252  1  0.64500000  0.24010000  0.69600000  1.0
  N  N253  1  0.56730000  0.24670000  0.56200000  1.0
  N  N254  1  0.35500000  0.75990000  0.69600000  1.0
  N  N255  1  0.43270000  0.75330000  0.56200000  1.0
  N  N256  1  0.75990000  0.64500000  0.30400000  1.0
  N  N257  1  0.75330000  0.56730000  0.43800000  1.0
  N  N258  1  0.24010000  0.35500000  0.30400000  1.0
  N  N259  1  0.24670000  0.43270000  0.43800000  1.0
  N  N260  1  0.14500000  0.74010000  0.19600000  1.0
  N  N261  1  0.06730000  0.74670000  0.06200000  1.0
  N  N262  1  0.85500000  0.25990000  0.19600000  1.0
  N  N263  1  0.93270000  0.25330000  0.06200000  1.0
  O  O264  1  0.27620000  0.85870000  0.60000000  1.0
  O  O265  1  0.34200000  0.86600000  0.28300000  1.0
  O  O266  1  0.28570000  0.24660000  0.38100000  1.0
  O  O267  1  0.34410000  0.87650000  0.61200000  1.0
  O  O268  1  0.72380000  0.14130000  0.60000000  1.0
  O  O269  1  0.65800000  0.13400000  0.28300000  1.0
  O  O270  1  0.71430000  0.75340000  0.38100000  1.0
  O  O271  1  0.65590000  0.12350000  0.61200000  1.0
  O  O272  1  0.35870000  0.22380000  0.90000000  1.0
  O  O273  1  0.36600000  0.15800000  0.21700000  1.0
  O  O274  1  0.74660000  0.21430000  0.11900000  1.0
  O  O275  1  0.37650000  0.15590000  0.88800000  1.0
  O  O276  1  0.64130000  0.77620000  0.90000000  1.0
  O  O277  1  0.63400000  0.84200000  0.21700000  1.0
  O  O278  1  0.25340000  0.78570000  0.11900000  1.0
  O  O279  1  0.62350000  0.84410000  0.88800000  1.0
  O  O280  1  0.77620000  0.35870000  0.10000000  1.0
  O  O281  1  0.84200000  0.36600000  0.78300000  1.0
  O  O282  1  0.78570000  0.74660000  0.88100000  1.0
  O  O283  1  0.84410000  0.37650000  0.11200000  1.0
  O  O284  1  0.22380000  0.64130000  0.10000000  1.0
  O  O285  1  0.15800000  0.63400000  0.78300000  1.0
  O  O286  1  0.21430000  0.25340000  0.88100000  1.0
  O  O287  1  0.15590000  0.62350000  0.11200000  1.0
  O  O288  1  0.85870000  0.72380000  0.40000000  1.0
  O  O289  1  0.86600000  0.65800000  0.71700000  1.0
  O  O290  1  0.24660000  0.71430000  0.61900000  1.0
  O  O291  1  0.87650000  0.65590000  0.38800000  1.0
  O  O292  1  0.14130000  0.27620000  0.40000000  1.0
  O  O293  1  0.13400000  0.34200000  0.71700000  1.0
  O  O294  1  0.75340000  0.28570000  0.61900000  1.0
  O  O295  1  0.12350000  0.34410000  0.38800000  1.0
