# generated using pymatgen
data_ZnH12C18(NO2)2
_symmetry_space_group_name_H-M   'P 1'
_cell_length_a   27.70690000
_cell_length_b   27.70690000
_cell_length_c   3.57190000
_cell_angle_alpha   90.00000000
_cell_angle_beta   90.00000000
_cell_angle_gamma   90.00000000
_symmetry_Int_Tables_number   1
_chemical_formula_structural   ZnH12C18(NO2)2
_chemical_formula_sum   'Zn8 H96 C144 N16 O32'
_cell_volume   2742.04871555
_cell_formula_units_Z   8
loop_
 _symmetry_equiv_pos_site_id
 _symmetry_equiv_pos_as_xyz
  1  'x, y, z'
loop_
 _atom_site_type_symbol
 _atom_site_label
 _atom_site_symmetry_multiplicity
 _atom_site_fract_x
 _atom_site_fract_y
 _atom_site_fract_z
 _atom_site_occupancy
  Zn  Zn0  1  0.28470000  0.21404000  0.84560000  1.0
  Zn  Zn1  1  0.71530000  0.78596000  0.84560000  1.0
  Zn  Zn2  1  0.71404000  0.21530000  0.65440000  1.0
  Zn  Zn3  1  0.28596000  0.78470000  0.65440000  1.0
  Zn  Zn4  1  0.78470000  0.71404000  0.34560000  1.0
  Zn  Zn5  1  0.21530000  0.28596000  0.34560000  1.0
  Zn  Zn6  1  0.21404000  0.71530000  0.15440000  1.0
  Zn  Zn7  1  0.78596000  0.28470000  0.15440000  1.0
  H  H8  1  0.31090000  0.11010000  0.04530000  1.0
  H  H9  1  0.18170000  0.18600000  0.40190000  1.0
  H  H10  1  0.10260000  0.18240000  0.11240000  1.0
  H  H11  1  0.03370000  0.14050000  0.94460000  1.0
  H  H12  1  0.02750000  0.05910000  0.09970000  1.0
  H  H13  1  0.08960000  0.02130000  0.41380000  1.0
  H  H14  1  0.16800000  0.02230000  0.69880000  1.0
  H  H15  1  0.22080000  0.92470000  0.39500000  1.0
  H  H16  1  0.36040000  0.95270000  0.18070000  1.0
  H  H17  1  0.33960000  0.02880000  0.96340000  1.0
  H  H18  1  0.20000000  0.00080000  0.17770000  1.0
  H  H19  1  0.30870000  0.23560000  0.22980000  1.0
  H  H20  1  0.68910000  0.88990000  0.04530000  1.0
  H  H21  1  0.81830000  0.81400000  0.40190000  1.0
  H  H22  1  0.89740000  0.81760000  0.11240000  1.0
  H  H23  1  0.96630000  0.85950000  0.94460000  1.0
  H  H24  1  0.97250000  0.94090000  0.09970000  1.0
  H  H25  1  0.91040000  0.97870000  0.41380000  1.0
  H  H26  1  0.83200000  0.97770000  0.69880000  1.0
  H  H27  1  0.77920000  0.07530000  0.39500000  1.0
  H  H28  1  0.63960000  0.04730000  0.18070000  1.0
  H  H29  1  0.66040000  0.97120000  0.96340000  1.0
  H  H30  1  0.80000000  0.99920000  0.17770000  1.0
  H  H31  1  0.69130000  0.76440000  0.22980000  1.0
  H  H32  1  0.61010000  0.18910000  0.45470000  1.0
  H  H33  1  0.68600000  0.31830000  0.09810000  1.0
  H  H34  1  0.68240000  0.39740000  0.38760000  1.0
  H  H35  1  0.64050000  0.46630000  0.55540000  1.0
  H  H36  1  0.55910000  0.47250000  0.40030000  1.0
  H  H37  1  0.52130000  0.41040000  0.08620000  1.0
  H  H38  1  0.52230000  0.33200000  0.80120000  1.0
  H  H39  1  0.42470000  0.27920000  0.10500000  1.0
  H  H40  1  0.45270000  0.13960000  0.31930000  1.0
  H  H41  1  0.52880000  0.16040000  0.53660000  1.0
  H  H42  1  0.50080000  0.30000000  0.32230000  1.0
  H  H43  1  0.73560000  0.19130000  0.27020000  1.0
  H  H44  1  0.38990000  0.81090000  0.45470000  1.0
  H  H45  1  0.31400000  0.68170000  0.09810000  1.0
  H  H46  1  0.31760000  0.60260000  0.38760000  1.0
  H  H47  1  0.35950000  0.53370000  0.55540000  1.0
  H  H48  1  0.44090000  0.52750000  0.40030000  1.0
  H  H49  1  0.47870000  0.58960000  0.08620000  1.0
  H  H50  1  0.47770000  0.66800000  0.80120000  1.0
  H  H51  1  0.57530000  0.72080000  0.10500000  1.0
  H  H52  1  0.54730000  0.86040000  0.31930000  1.0
  H  H53  1  0.47120000  0.83960000  0.53660000  1.0
  H  H54  1  0.49920000  0.70000000  0.32230000  1.0
  H  H55  1  0.26440000  0.80870000  0.27020000  1.0
  H  H56  1  0.81090000  0.61010000  0.54530000  1.0
  H  H57  1  0.68170000  0.68600000  0.90190000  1.0
  H  H58  1  0.60260000  0.68240000  0.61240000  1.0
  H  H59  1  0.53370000  0.64050000  0.44460000  1.0
  H  H60  1  0.52750000  0.55910000  0.59970000  1.0
  H  H61  1  0.58960000  0.52130000  0.91380000  1.0
  H  H62  1  0.66800000  0.52230000  0.19880000  1.0
  H  H63  1  0.72080000  0.42470000  0.89500000  1.0
  H  H64  1  0.86040000  0.45270000  0.68070000  1.0
  H  H65  1  0.83960000  0.52880000  0.46340000  1.0
  H  H66  1  0.70000000  0.50080000  0.67770000  1.0
  H  H67  1  0.80870000  0.73560000  0.72980000  1.0
  H  H68  1  0.18910000  0.38990000  0.54530000  1.0
  H  H69  1  0.31830000  0.31400000  0.90190000  1.0
  H  H70  1  0.39740000  0.31760000  0.61240000  1.0
  H  H71  1  0.46630000  0.35950000  0.44460000  1.0
  H  H72  1  0.47250000  0.44090000  0.59970000  1.0
  H  H73  1  0.41040000  0.47870000  0.91380000  1.0
  H  H74  1  0.33200000  0.47770000  0.19880000  1.0
  H  H75  1  0.27920000  0.57530000  0.89500000  1.0
  H  H76  1  0.13960000  0.54730000  0.68070000  1.0
  H  H77  1  0.16040000  0.47120000  0.46340000  1.0
  H  H78  1  0.30000000  0.49920000  0.67770000  1.0
  H  H79  1  0.19130000  0.26440000  0.72980000  1.0
  H  H80  1  0.11010000  0.68910000  0.95470000  1.0
  H  H81  1  0.18600000  0.81830000  0.59810000  1.0
  H  H82  1  0.18240000  0.89740000  0.88760000  1.0
  H  H83  1  0.14050000  0.96630000  0.05540000  1.0
  H  H84  1  0.05910000  0.97250000  0.90030000  1.0
  H  H85  1  0.02130000  0.91040000  0.58620000  1.0
  H  H86  1  0.02230000  0.83200000  0.30120000  1.0
  H  H87  1  0.92470000  0.77920000  0.60500000  1.0
  H  H88  1  0.95270000  0.63960000  0.81930000  1.0
  H  H89  1  0.02880000  0.66040000  0.03660000  1.0
  H  H90  1  0.00080000  0.80000000  0.82230000  1.0
  H  H91  1  0.23560000  0.69130000  0.77020000  1.0
  H  H92  1  0.88990000  0.31090000  0.95470000  1.0
  H  H93  1  0.81400000  0.18170000  0.59810000  1.0
  H  H94  1  0.81760000  0.10260000  0.88760000  1.0
  H  H95  1  0.85950000  0.03370000  0.05540000  1.0
  H  H96  1  0.94090000  0.02750000  0.90030000  1.0
  H  H97  1  0.97870000  0.08960000  0.58620000  1.0
  H  H98  1  0.97770000  0.16800000  0.30120000  1.0
  H  H99  1  0.07530000  0.22080000  0.60500000  1.0
  H  H100  1  0.04730000  0.36040000  0.81930000  1.0
  H  H101  1  0.97120000  0.33960000  0.03660000  1.0
  H  H102  1  0.99920000  0.20000000  0.82230000  1.0
  H  H103  1  0.76440000  0.30870000  0.77020000  1.0
  C  C104  1  0.28060000  0.10870000  0.93400000  1.0
  C  C105  1  0.21530000  0.12940000  0.64700000  1.0
  C  C106  1  0.17870000  0.15340000  0.46100000  1.0
  C  C107  1  0.13750000  0.12800000  0.36400000  1.0
  C  C108  1  0.10000000  0.14990000  0.17400000  1.0
  C  C109  1  0.05850000  0.12500000  0.07200000  1.0
  C  C110  1  0.05500000  0.07640000  0.16500000  1.0
  C  C111  1  0.09230000  0.05380000  0.35300000  1.0
  C  C112  1  0.13410000  0.07900000  0.45500000  1.0
  C  C113  1  0.17070000  0.05500000  0.64200000  1.0
  C  C114  1  0.21130000  0.08070000  0.74200000  1.0
  C  C115  1  0.24460000  0.94560000  0.30800000  1.0
  C  C116  1  0.29270000  0.93120000  0.30900000  1.0
  C  C117  1  0.32830000  0.96240000  0.18000000  1.0
  C  C118  1  0.31580000  0.00800000  0.05000000  1.0
  C  C119  1  0.26770000  0.02240000  0.04900000  1.0
  C  C120  1  0.23220000  0.99110000  0.17800000  1.0
  C  C121  1  0.30090000  0.88040000  0.45400000  1.0
  C  C122  1  0.71940000  0.89130000  0.93400000  1.0
  C  C123  1  0.78470000  0.87060000  0.64700000  1.0
  C  C124  1  0.82130000  0.84660000  0.46100000  1.0
  C  C125  1  0.86250000  0.87200000  0.36400000  1.0
  C  C126  1  0.90000000  0.85010000  0.17400000  1.0
  C  C127  1  0.94150000  0.87500000  0.07200000  1.0
  C  C128  1  0.94500000  0.92360000  0.16500000  1.0
  C  C129  1  0.90770000  0.94620000  0.35300000  1.0
  C  C130  1  0.86590000  0.92100000  0.45500000  1.0
  C  C131  1  0.82930000  0.94500000  0.64200000  1.0
  C  C132  1  0.78870000  0.91930000  0.74200000  1.0
  C  C133  1  0.75540000  0.05440000  0.30800000  1.0
  C  C134  1  0.70730000  0.06880000  0.30900000  1.0
  C  C135  1  0.67170000  0.03760000  0.18000000  1.0
  C  C136  1  0.68420000  0.99200000  0.05000000  1.0
  C  C137  1  0.73230000  0.97760000  0.04900000  1.0
  C  C138  1  0.76780000  0.00890000  0.17800000  1.0
  C  C139  1  0.69910000  0.11960000  0.45400000  1.0
  C  C140  1  0.60870000  0.21940000  0.56600000  1.0
  C  C141  1  0.62940000  0.28470000  0.85300000  1.0
  C  C142  1  0.65340000  0.32130000  0.03900000  1.0
  C  C143  1  0.62800000  0.36250000  0.13600000  1.0
  C  C144  1  0.64990000  0.40000000  0.32600000  1.0
  C  C145  1  0.62500000  0.44150000  0.42800000  1.0
  C  C146  1  0.57640000  0.44500000  0.33500000  1.0
  C  C147  1  0.55380000  0.40770000  0.14700000  1.0
  C  C148  1  0.57900000  0.36590000  0.04500000  1.0
  C  C149  1  0.55500000  0.32930000  0.85800000  1.0
  C  C150  1  0.58070000  0.28870000  0.75800000  1.0
  C  C151  1  0.44560000  0.25540000  0.19200000  1.0
  C  C152  1  0.43120000  0.20730000  0.19100000  1.0
  C  C153  1  0.46240000  0.17170000  0.32000000  1.0
  C  C154  1  0.50800000  0.18420000  0.45000000  1.0
  C  C155  1  0.52240000  0.23230000  0.45100000  1.0
  C  C156  1  0.49110000  0.26780000  0.32200000  1.0
  C  C157  1  0.38040000  0.19910000  0.04600000  1.0
  C  C158  1  0.39130000  0.78060000  0.56600000  1.0
  C  C159  1  0.37060000  0.71530000  0.85300000  1.0
  C  C160  1  0.34660000  0.67870000  0.03900000  1.0
  C  C161  1  0.37200000  0.63750000  0.13600000  1.0
  C  C162  1  0.35010000  0.60000000  0.32600000  1.0
  C  C163  1  0.37500000  0.55850000  0.42800000  1.0
  C  C164  1  0.42360000  0.55500000  0.33500000  1.0
  C  C165  1  0.44620000  0.59230000  0.14700000  1.0
  C  C166  1  0.42100000  0.63410000  0.04500000  1.0
  C  C167  1  0.44500000  0.67070000  0.85800000  1.0
  C  C168  1  0.41930000  0.71130000  0.75800000  1.0
  C  C169  1  0.55440000  0.74460000  0.19200000  1.0
  C  C170  1  0.56880000  0.79270000  0.19100000  1.0
  C  C171  1  0.53760000  0.82830000  0.32000000  1.0
  C  C172  1  0.49200000  0.81580000  0.45000000  1.0
  C  C173  1  0.47760000  0.76770000  0.45100000  1.0
  C  C174  1  0.50890000  0.73220000  0.32200000  1.0
  C  C175  1  0.61960000  0.80090000  0.04600000  1.0
  C  C176  1  0.78060000  0.60870000  0.43400000  1.0
  C  C177  1  0.71530000  0.62940000  0.14700000  1.0
  C  C178  1  0.67870000  0.65340000  0.96100000  1.0
  C  C179  1  0.63750000  0.62800000  0.86400000  1.0
  C  C180  1  0.60000000  0.64990000  0.67400000  1.0
  C  C181  1  0.55850000  0.62500000  0.57200000  1.0
  C  C182  1  0.55500000  0.57640000  0.66500000  1.0
  C  C183  1  0.59230000  0.55380000  0.85300000  1.0
  C  C184  1  0.63410000  0.57900000  0.95500000  1.0
  C  C185  1  0.67070000  0.55500000  0.14200000  1.0
  C  C186  1  0.71130000  0.58070000  0.24200000  1.0
  C  C187  1  0.74460000  0.44560000  0.80800000  1.0
  C  C188  1  0.79270000  0.43120000  0.80900000  1.0
  C  C189  1  0.82830000  0.46240000  0.68000000  1.0
  C  C190  1  0.81580000  0.50800000  0.55000000  1.0
  C  C191  1  0.76770000  0.52240000  0.54900000  1.0
  C  C192  1  0.73220000  0.49110000  0.67800000  1.0
  C  C193  1  0.80090000  0.38040000  0.95400000  1.0
  C  C194  1  0.21940000  0.39130000  0.43400000  1.0
  C  C195  1  0.28470000  0.37060000  0.14700000  1.0
  C  C196  1  0.32130000  0.34660000  0.96100000  1.0
  C  C197  1  0.36250000  0.37200000  0.86400000  1.0
  C  C198  1  0.40000000  0.35010000  0.67400000  1.0
  C  C199  1  0.44150000  0.37500000  0.57200000  1.0
  C  C200  1  0.44500000  0.42360000  0.66500000  1.0
  C  C201  1  0.40770000  0.44620000  0.85300000  1.0
  C  C202  1  0.36590000  0.42100000  0.95500000  1.0
  C  C203  1  0.32930000  0.44500000  0.14200000  1.0
  C  C204  1  0.28870000  0.41930000  0.24200000  1.0
  C  C205  1  0.25540000  0.55440000  0.80800000  1.0
  C  C206  1  0.20730000  0.56880000  0.80900000  1.0
  C  C207  1  0.17170000  0.53760000  0.68000000  1.0
  C  C208  1  0.18420000  0.49200000  0.55000000  1.0
  C  C209  1  0.23230000  0.47760000  0.54900000  1.0
  C  C210  1  0.26780000  0.50890000  0.67800000  1.0
  C  C211  1  0.19910000  0.61960000  0.95400000  1.0
  C  C212  1  0.10870000  0.71940000  0.06600000  1.0
  C  C213  1  0.12940000  0.78470000  0.35300000  1.0
  C  C214  1  0.15340000  0.82130000  0.53900000  1.0
  C  C215  1  0.12800000  0.86250000  0.63600000  1.0
  C  C216  1  0.14990000  0.90000000  0.82600000  1.0
  C  C217  1  0.12500000  0.94150000  0.92800000  1.0
  C  C218  1  0.07640000  0.94500000  0.83500000  1.0
  C  C219  1  0.05380000  0.90770000  0.64700000  1.0
  C  C220  1  0.07900000  0.86590000  0.54500000  1.0
  C  C221  1  0.05500000  0.82930000  0.35800000  1.0
  C  C222  1  0.08070000  0.78870000  0.25800000  1.0
  C  C223  1  0.94560000  0.75540000  0.69200000  1.0
  C  C224  1  0.93120000  0.70730000  0.69100000  1.0
  C  C225  1  0.96240000  0.67170000  0.82000000  1.0
  C  C226  1  0.00800000  0.68420000  0.95000000  1.0
  C  C227  1  0.02240000  0.73230000  0.95100000  1.0
  C  C228  1  0.99110000  0.76780000  0.82200000  1.0
  C  C229  1  0.88040000  0.69910000  0.54600000  1.0
  C  C230  1  0.89130000  0.28060000  0.06600000  1.0
  C  C231  1  0.87060000  0.21530000  0.35300000  1.0
  C  C232  1  0.84660000  0.17870000  0.53900000  1.0
  C  C233  1  0.87200000  0.13750000  0.63600000  1.0
  C  C234  1  0.85010000  0.10000000  0.82600000  1.0
  C  C235  1  0.87500000  0.05850000  0.92800000  1.0
  C  C236  1  0.92360000  0.05500000  0.83500000  1.0
  C  C237  1  0.94620000  0.09230000  0.64700000  1.0
  C  C238  1  0.92100000  0.13410000  0.54500000  1.0
  C  C239  1  0.94500000  0.17070000  0.35800000  1.0
  C  C240  1  0.91930000  0.21130000  0.25800000  1.0
  C  C241  1  0.05440000  0.24460000  0.69200000  1.0
  C  C242  1  0.06880000  0.29270000  0.69100000  1.0
  C  C243  1  0.03760000  0.32830000  0.82000000  1.0
  C  C244  1  0.99200000  0.31580000  0.95000000  1.0
  C  C245  1  0.97760000  0.26770000  0.95100000  1.0
  C  C246  1  0.00890000  0.23220000  0.82200000  1.0
  C  C247  1  0.11960000  0.30090000  0.54600000  1.0
  N  N248  1  0.26020000  0.14610000  0.77800000  1.0
  N  N249  1  0.25400000  0.06760000  0.91900000  1.0
  N  N250  1  0.73980000  0.85390000  0.77800000  1.0
  N  N251  1  0.74600000  0.93240000  0.91900000  1.0
  N  N252  1  0.64610000  0.23980000  0.72200000  1.0
  N  N253  1  0.56760000  0.24600000  0.58100000  1.0
  N  N254  1  0.35390000  0.76020000  0.72200000  1.0
  N  N255  1  0.43240000  0.75400000  0.58100000  1.0
  N  N256  1  0.76020000  0.64610000  0.27800000  1.0
  N  N257  1  0.75400000  0.56760000  0.41900000  1.0
  N  N258  1  0.23980000  0.35390000  0.27800000  1.0
  N  N259  1  0.24600000  0.43240000  0.41900000  1.0
  N  N260  1  0.14610000  0.73980000  0.22200000  1.0
  N  N261  1  0.06760000  0.74600000  0.08100000  1.0
  N  N262  1  0.85390000  0.26020000  0.22200000  1.0
  N  N263  1  0.93240000  0.25400000  0.08100000  1.0
  O  O264  1  0.27220000  0.85830000  0.61900000  1.0
  O  O265  1  0.33880000  0.86060000  0.29400000  1.0
  O  O266  1  0.28570000  0.24790000  0.35500000  1.0
  O  O267  1  0.34040000  0.87500000  0.65200000  1.0
  O  O268  1  0.72780000  0.14170000  0.61900000  1.0
  O  O269  1  0.66120000  0.13940000  0.29400000  1.0
  O  O270  1  0.71430000  0.75210000  0.35500000  1.0
  O  O271  1  0.65960000  0.12500000  0.65200000  1.0
  O  O272  1  0.35830000  0.22780000  0.88100000  1.0
  O  O273  1  0.36060000  0.16120000  0.20600000  1.0
  O  O274  1  0.74790000  0.21430000  0.14500000  1.0
  O  O275  1  0.37500000  0.15960000  0.84800000  1.0
  O  O276  1  0.64170000  0.77220000  0.88100000  1.0
  O  O277  1  0.63940000  0.83880000  0.20600000  1.0
  O  O278  1  0.25210000  0.78570000  0.14500000  1.0
  O  O279  1  0.62500000  0.84040000  0.84800000  1.0
  O  O280  1  0.77220000  0.35830000  0.11900000  1.0
  O  O281  1  0.83880000  0.36060000  0.79400000  1.0
  O  O282  1  0.78570000  0.74790000  0.85500000  1.0
  O  O283  1  0.84040000  0.37500000  0.15200000  1.0
  O  O284  1  0.22780000  0.64170000  0.11900000  1.0
  O  O285  1  0.16120000  0.63940000  0.79400000  1.0
  O  O286  1  0.21430000  0.25210000  0.85500000  1.0
  O  O287  1  0.15960000  0.62500000  0.15200000  1.0
  O  O288  1  0.85830000  0.72780000  0.38100000  1.0
  O  O289  1  0.86060000  0.66120000  0.70600000  1.0
  O  O290  1  0.24790000  0.71430000  0.64500000  1.0
  O  O291  1  0.87500000  0.65960000  0.34800000  1.0
  O  O292  1  0.14170000  0.27220000  0.38100000  1.0
  O  O293  1  0.13940000  0.33880000  0.70600000  1.0
  O  O294  1  0.75210000  0.28570000  0.64500000  1.0
  O  O295  1  0.12500000  0.34040000  0.34800000  1.0
