# generated using pymatgen
data_Tb4H18C57(O4F3)6
_symmetry_space_group_name_H-M   'P 1'
_cell_length_a   8.13600000
_cell_length_b   21.39450000
_cell_length_c   22.87980000
_cell_angle_alpha   82.37400000
_cell_angle_beta   82.74600000
_cell_angle_gamma   79.43700000
_symmetry_Int_Tables_number   1
_chemical_formula_structural   Tb4H18C57(O4F3)6
_chemical_formula_sum   'Tb8 H36 C114 O48 F36'
_cell_volume   3859.17428048
_cell_formula_units_Z   2
loop_
 _symmetry_equiv_pos_site_id
 _symmetry_equiv_pos_as_xyz
  1  'x, y, z'
loop_
 _atom_site_type_symbol
 _atom_site_label
 _atom_site_symmetry_multiplicity
 _atom_site_fract_x
 _atom_site_fract_y
 _atom_site_fract_z
 _atom_site_occupancy
  Tb  Tb0  1  0.73836000  0.09431000  0.53520000  1.0
  Tb  Tb1  1  0.96626000  0.24779000  0.59615000  1.0
  Tb  Tb2  1  0.70057000  0.57590000  0.21622000  1.0
  Tb  Tb3  1  0.11363000  0.52830000  0.06760000  1.0
  Tb  Tb4  1  0.26164000  0.90569000  0.46480000  1.0
  Tb  Tb5  1  0.03374000  0.75221000  0.40385000  1.0
  Tb  Tb6  1  0.29943000  0.42410000  0.78378000  1.0
  Tb  Tb7  1  0.88637000  0.47170000  0.93240000  1.0
  H  H8  1  0.09400000  0.22990000  0.37490000  1.0
  H  H9  1  0.73060000  0.25360000  0.26740000  1.0
  H  H10  1  0.53120000  0.25520000  0.34860000  1.0
  H  H11  1  0.94140000  0.35460000  0.24670000  1.0
  H  H12  1  0.97450000  0.28620000  0.06260000  1.0
  H  H13  1  0.05300000  0.21360000  0.14110000  1.0
  H  H14  1  0.84210000  0.91020000  0.28370000  1.0
  H  H15  1  0.58790000  0.08700000  0.24630000  1.0
  H  H16  1  0.65290000  0.11440000  0.33380000  1.0
  H  H17  1  0.46460000  0.92580000  0.28650000  1.0
  H  H18  1  0.72260000  0.75480000  0.18670000  1.0
  H  H19  1  0.77510000  0.85690000  0.15130000  1.0
  H  H20  1  0.84320000  0.28230000  0.92980000  1.0
  H  H21  1  0.74330000  0.13810000  0.85150000  1.0
  H  H22  1  0.83600000  0.18590000  0.76220000  1.0
  H  H23  1  0.48530000  0.27100000  0.91660000  1.0
  H  H24  1  0.48340000  0.30960000  0.10970000  1.0
  H  H25  1  0.64420000  0.21790000  0.07730000  1.0
  H  H26  1  0.90600000  0.77010000  0.62510000  1.0
  H  H27  1  0.26940000  0.74640000  0.73260000  1.0
  H  H28  1  0.46880000  0.74480000  0.65140000  1.0
  H  H29  1  0.05860000  0.64540000  0.75330000  1.0
  H  H30  1  0.02550000  0.71380000  0.93740000  1.0
  H  H31  1  0.94700000  0.78640000  0.85890000  1.0
  H  H32  1  0.15790000  0.08980000  0.71630000  1.0
  H  H33  1  0.41210000  0.91300000  0.75370000  1.0
  H  H34  1  0.34710000  0.88560000  0.66620000  1.0
  H  H35  1  0.53540000  0.07420000  0.71350000  1.0
  H  H36  1  0.27740000  0.24520000  0.81330000  1.0
  H  H37  1  0.22490000  0.14310000  0.84870000  1.0
  H  H38  1  0.15680000  0.71770000  0.07020000  1.0
  H  H39  1  0.25670000  0.86190000  0.14850000  1.0
  H  H40  1  0.16400000  0.81410000  0.23780000  1.0
  H  H41  1  0.51470000  0.72900000  0.08340000  1.0
  H  H42  1  0.51660000  0.69040000  0.89030000  1.0
  H  H43  1  0.35580000  0.78210000  0.92270000  1.0
  C  C44  1  0.55910000  0.22950000  0.46240000  1.0
  C  C45  1  0.69230000  0.23780000  0.41150000  1.0
  C  C46  1  0.86120000  0.23290000  0.41830000  1.0
  C  C47  1  0.98110000  0.23370000  0.36940000  1.0
  C  C48  1  0.93320000  0.24000000  0.31240000  1.0
  C  C49  1  0.76440000  0.24810000  0.30530000  1.0
  C  C50  1  0.64460000  0.24820000  0.35410000  1.0
  C  C51  1  0.91740000  0.22730000  0.47950000  1.0
  C  C52  1  0.06530000  0.23170000  0.25710000  1.0
  C  C53  1  0.00590000  0.27600000  0.20260000  1.0
  C  C54  1  0.94960000  0.34110000  0.20930000  1.0
  C  C55  1  0.90590000  0.38550000  0.16180000  1.0
  C  C56  1  0.91520000  0.36500000  0.10480000  1.0
  C  C57  1  0.96930000  0.30040000  0.09960000  1.0
  C  C58  1  0.01550000  0.25640000  0.14670000  1.0
  C  C59  1  0.84420000  0.45350000  0.17390000  1.0
  C  C60  1  0.88240000  0.40780000  0.05050000  1.0
  C  C61  1  0.24080000  0.24440000  0.26560000  1.0
  C  C62  1  0.07900000  0.15980000  0.24580000  1.0
  C  C63  1  0.78220000  0.04620000  0.42450000  1.0
  C  C64  1  0.77890000  0.02820000  0.36390000  1.0
  C  C65  1  0.84090000  0.96730000  0.34740000  1.0
  C  C66  1  0.80260000  0.95130000  0.29410000  1.0
  C  C67  1  0.70800000  0.99470000  0.25650000  1.0
  C  C68  1  0.65070000  0.05680000  0.27150000  1.0
  C  C69  1  0.68860000  0.07270000  0.32430000  1.0
  C  C70  1  0.92990000  0.91570000  0.38910000  1.0
  C  C71  1  0.66540000  0.97130000  0.20040000  1.0
  C  C72  1  0.62710000  0.90240000  0.21660000  1.0
  C  C73  1  0.51840000  0.89120000  0.26660000  1.0
  C  C74  1  0.48630000  0.83110000  0.28840000  1.0
  C  C75  1  0.57030000  0.77840000  0.25950000  1.0
  C  C76  1  0.67310000  0.78910000  0.20760000  1.0
  C  C77  1  0.70390000  0.85050000  0.18590000  1.0
  C  C78  1  0.35570000  0.82610000  0.34040000  1.0
  C  C79  1  0.57140000  0.70980000  0.28820000  1.0
  C  C80  1  0.81850000  0.97640000  0.15330000  1.0
  C  C81  1  0.50830000  0.01230000  0.17480000  1.0
  C  C82  1  0.92740000  0.30100000  0.72880000  1.0
  C  C83  1  0.89290000  0.26430000  0.78950000  1.0
  C  C84  1  0.89480000  0.29320000  0.84190000  1.0
  C  C85  1  0.83950000  0.26360000  0.89570000  1.0
  C  C86  1  0.77760000  0.20610000  0.90100000  1.0
  C  C87  1  0.78010000  0.17720000  0.84920000  1.0
  C  C88  1  0.83580000  0.20590000  0.79590000  1.0
  C  C89  1  0.96480000  0.35380000  0.84030000  1.0
  C  C90  1  0.70390000  0.18010000  0.96400000  1.0
  C  C91  1  0.59050000  0.23640000  0.99170000  1.0
  C  C92  1  0.48830000  0.27940000  0.95530000  1.0
  C  C93  1  0.39090000  0.33410000  0.97440000  1.0
  C  C94  1  0.39630000  0.34750000  0.03200000  1.0
  C  C95  1  0.48730000  0.30250000  0.07030000  1.0
  C  C96  1  0.58390000  0.24750000  0.05100000  1.0
  C  C97  1  0.28320000  0.37850000  0.93080000  1.0
  C  C98  1  0.32010000  0.41240000  0.04990000  1.0
  C  C99  1  0.85730000  0.15210000  0.99830000  1.0
  C  C100  1  0.60040000  0.12770000  0.96280000  1.0
  C  C101  1  0.44090000  0.77050000  0.53760000  1.0
  C  C102  1  0.30770000  0.76220000  0.58850000  1.0
  C  C103  1  0.13880000  0.76710000  0.58170000  1.0
  C  C104  1  0.01890000  0.76630000  0.63060000  1.0
  C  C105  1  0.06680000  0.76000000  0.68760000  1.0
  C  C106  1  0.23560000  0.75190000  0.69470000  1.0
  C  C107  1  0.35540000  0.75180000  0.64590000  1.0
  C  C108  1  0.08260000  0.77270000  0.52050000  1.0
  C  C109  1  0.93470000  0.76830000  0.74290000  1.0
  C  C110  1  0.99410000  0.72400000  0.79740000  1.0
  C  C111  1  0.05040000  0.65890000  0.79070000  1.0
  C  C112  1  0.09410000  0.61450000  0.83820000  1.0
  C  C113  1  0.08480000  0.63500000  0.89520000  1.0
  C  C114  1  0.03070000  0.69960000  0.90040000  1.0
  C  C115  1  0.98450000  0.74360000  0.85330000  1.0
  C  C116  1  0.15580000  0.54650000  0.82610000  1.0
  C  C117  1  0.11760000  0.59220000  0.94950000  1.0
  C  C118  1  0.75920000  0.75560000  0.73440000  1.0
  C  C119  1  0.92100000  0.84020000  0.75420000  1.0
  C  C120  1  0.21780000  0.95380000  0.57550000  1.0
  C  C121  1  0.22110000  0.97180000  0.63610000  1.0
  C  C122  1  0.15910000  0.03270000  0.65260000  1.0
  C  C123  1  0.19740000  0.04870000  0.70590000  1.0
  C  C124  1  0.29200000  0.00530000  0.74350000  1.0
  C  C125  1  0.34930000  0.94320000  0.72850000  1.0
  C  C126  1  0.31140000  0.92730000  0.67570000  1.0
  C  C127  1  0.07010000  0.08430000  0.61090000  1.0
  C  C128  1  0.33460000  0.02870000  0.79960000  1.0
  C  C129  1  0.37290000  0.09760000  0.78340000  1.0
  C  C130  1  0.48160000  0.10880000  0.73340000  1.0
  C  C131  1  0.51370000  0.16890000  0.71160000  1.0
  C  C132  1  0.42970000  0.22160000  0.74050000  1.0
  C  C133  1  0.32690000  0.21090000  0.79240000  1.0
  C  C134  1  0.29610000  0.14950000  0.81410000  1.0
  C  C135  1  0.64430000  0.17390000  0.65960000  1.0
  C  C136  1  0.42860000  0.29020000  0.71180000  1.0
  C  C137  1  0.18150000  0.02360000  0.84670000  1.0
  C  C138  1  0.49170000  0.98770000  0.82520000  1.0
  C  C139  1  0.07260000  0.69900000  0.27120000  1.0
  C  C140  1  0.10710000  0.73570000  0.21050000  1.0
  C  C141  1  0.10520000  0.70680000  0.15810000  1.0
  C  C142  1  0.16050000  0.73640000  0.10430000  1.0
  C  C143  1  0.22240000  0.79390000  0.09900000  1.0
  C  C144  1  0.21990000  0.82280000  0.15080000  1.0
  C  C145  1  0.16420000  0.79410000  0.20410000  1.0
  C  C146  1  0.03520000  0.64620000  0.15970000  1.0
  C  C147  1  0.29610000  0.81990000  0.03600000  1.0
  C  C148  1  0.40950000  0.76360000  0.00830000  1.0
  C  C149  1  0.51170000  0.72060000  0.04470000  1.0
  C  C150  1  0.60910000  0.66590000  0.02560000  1.0
  C  C151  1  0.60370000  0.65250000  0.96800000  1.0
  C  C152  1  0.51270000  0.69750000  0.92970000  1.0
  C  C153  1  0.41610000  0.75250000  0.94900000  1.0
  C  C154  1  0.71680000  0.62150000  0.06920000  1.0
  C  C155  1  0.67990000  0.58760000  0.95010000  1.0
  C  C156  1  0.14270000  0.84790000  0.00170000  1.0
  C  C157  1  0.39960000  0.87230000  0.03720000  1.0
  O  O158  1  0.55230000  0.17240000  0.48560000  1.0
  O  O159  1  0.45570000  0.27600000  0.47660000  1.0
  O  O160  1  0.85240000  0.19420000  0.52130000  1.0
  O  O161  1  0.02250000  0.26060000  0.48790000  1.0
  O  O162  1  0.70530000  0.46560000  0.20430000  1.0
  O  O163  1  0.93120000  0.49770000  0.15760000  1.0
  O  O164  1  0.93520000  0.46110000  0.04160000  1.0
  O  O165  1  0.80820000  0.39190000  0.01110000  1.0
  O  O166  1  0.88510000  0.07950000  0.43600000  1.0
  O  O167  1  0.66650000  0.03100000  0.46300000  1.0
  O  O168  1  0.99440000  0.93360000  0.43070000  1.0
  O  O169  1  0.93380000  0.85980000  0.38080000  1.0
  O  O170  1  0.34570000  0.86610000  0.37700000  1.0
  O  O171  1  0.26260000  0.78600000  0.34330000  1.0
  O  O172  1  0.57860000  0.69890000  0.34320000  1.0
  O  O173  1  0.57080000  0.66790000  0.25460000  1.0
  O  O174  1  0.00080000  0.26870000  0.68780000  1.0
  O  O175  1  0.87320000  0.35960000  0.72200000  1.0
  O  O176  1  0.10820000  0.35550000  0.81420000  1.0
  O  O177  1  0.87690000  0.39720000  0.86800000  1.0
  O  O178  1  0.35910000  0.39190000  0.87960000  1.0
  O  O179  1  0.13260000  0.39610000  0.94690000  1.0
  O  O180  1  0.32830000  0.45920000  0.01070000  1.0
  O  O181  1  0.25370000  0.41890000  0.10200000  1.0
  O  O182  1  0.44770000  0.82760000  0.51440000  1.0
  O  O183  1  0.54430000  0.72400000  0.52340000  1.0
  O  O184  1  0.14760000  0.80580000  0.47870000  1.0
  O  O185  1  0.97750000  0.73940000  0.51210000  1.0
  O  O186  1  0.29470000  0.53440000  0.79570000  1.0
  O  O187  1  0.06880000  0.50230000  0.84240000  1.0
  O  O188  1  0.06480000  0.53890000  0.95840000  1.0
  O  O189  1  0.19180000  0.60810000  0.98890000  1.0
  O  O190  1  0.11490000  0.92050000  0.56400000  1.0
  O  O191  1  0.33350000  0.96900000  0.53700000  1.0
  O  O192  1  0.00560000  0.06640000  0.56930000  1.0
  O  O193  1  0.06620000  0.14020000  0.61920000  1.0
  O  O194  1  0.65430000  0.13390000  0.62300000  1.0
  O  O195  1  0.73740000  0.21400000  0.65670000  1.0
  O  O196  1  0.42140000  0.30110000  0.65680000  1.0
  O  O197  1  0.42920000  0.33210000  0.74540000  1.0
  O  O198  1  0.99920000  0.73130000  0.31220000  1.0
  O  O199  1  0.12680000  0.64040000  0.27800000  1.0
  O  O200  1  0.89180000  0.64450000  0.18580000  1.0
  O  O201  1  0.12310000  0.60280000  0.13200000  1.0
  O  O202  1  0.64090000  0.60810000  0.12040000  1.0
  O  O203  1  0.86740000  0.60390000  0.05310000  1.0
  O  O204  1  0.67170000  0.54080000  0.98930000  1.0
  O  O205  1  0.74630000  0.58110000  0.89800000  1.0
  F  F206  1  0.32040000  0.19800000  0.30300000  1.0
  F  F207  1  0.33620000  0.24770000  0.21520000  1.0
  F  F208  1  0.22860000  0.29860000  0.28870000  1.0
  F  F209  1  0.10610000  0.12120000  0.29660000  1.0
  F  F210  1  0.20900000  0.14270000  0.20620000  1.0
  F  F211  1  0.94090000  0.14800000  0.22800000  1.0
  F  F212  1  0.95370000  0.93470000  0.16970000  1.0
  F  F213  1  0.86170000  0.03400000  0.14860000  1.0
  F  F214  1  0.79360000  0.96560000  0.09980000  1.0
  F  F215  1  0.45900000  0.98420000  0.13260000  1.0
  F  F216  1  0.53190000  0.07080000  0.15100000  1.0
  F  F217  1  0.38040000  0.01920000  0.21660000  1.0
  F  F218  1  0.97060000  0.11160000  0.96760000  1.0
  F  F219  1  0.81700000  0.12110000  0.05020000  1.0
  F  F220  1  0.93840000  0.19700000  0.00960000  1.0
  F  F221  1  0.52100000  0.11290000  0.01630000  1.0
  F  F222  1  0.69350000  0.07280000  0.94610000  1.0
  F  F223  1  0.48020000  0.14600000  0.92650000  1.0
  F  F224  1  0.67960000  0.80200000  0.69700000  1.0
  F  F225  1  0.66380000  0.75230000  0.78480000  1.0
  F  F226  1  0.77140000  0.70140000  0.71130000  1.0
  F  F227  1  0.89390000  0.87880000  0.70340000  1.0
  F  F228  1  0.79100000  0.85730000  0.79380000  1.0
  F  F229  1  0.05910000  0.85200000  0.77200000  1.0
  F  F230  1  0.04630000  0.06530000  0.83030000  1.0
  F  F231  1  0.13830000  0.96600000  0.85140000  1.0
  F  F232  1  0.20640000  0.03440000  0.90020000  1.0
  F  F233  1  0.54100000  0.01580000  0.86740000  1.0
  F  F234  1  0.46810000  0.92920000  0.84900000  1.0
  F  F235  1  0.61960000  0.98080000  0.78340000  1.0
  F  F236  1  0.02940000  0.88840000  0.03240000  1.0
  F  F237  1  0.18300000  0.87890000  0.94980000  1.0
  F  F238  1  0.06160000  0.80300000  0.99040000  1.0
  F  F239  1  0.47900000  0.88710000  0.98370000  1.0
  F  F240  1  0.30650000  0.92720000  0.05390000  1.0
  F  F241  1  0.51980000  0.85400000  0.07350000  1.0
