# generated using pymatgen
data_Ag2H3W6C7NO19
_symmetry_space_group_name_H-M   'P 1'
_cell_length_a   12.70310000
_cell_length_b   12.70310000
_cell_length_c   35.75900000
_cell_angle_alpha   90.00000000
_cell_angle_beta   90.00000000
_cell_angle_gamma   90.00000000
_symmetry_Int_Tables_number   1
_chemical_formula_structural   Ag2H3W6C7NO19
_chemical_formula_sum   'Ag16 H24 W48 C56 N8 O152'
_cell_volume   5770.38511730
_cell_formula_units_Z   8
loop_
 _symmetry_equiv_pos_site_id
 _symmetry_equiv_pos_as_xyz
  1  'x, y, z'
loop_
 _atom_site_type_symbol
 _atom_site_label
 _atom_site_symmetry_multiplicity
 _atom_site_fract_x
 _atom_site_fract_y
 _atom_site_fract_z
 _atom_site_occupancy
  Ag  Ag0  1  0.14640000  0.17730000  0.98227000  1.0
  Ag  Ag1  1  0.95089000  0.43331000  0.89035000  1.0
  Ag  Ag2  1  0.85360000  0.82270000  0.48227000  1.0
  Ag  Ag3  1  0.04911000  0.56669000  0.39035000  1.0
  Ag  Ag4  1  0.32270000  0.64640000  0.23227000  1.0
  Ag  Ag5  1  0.06669000  0.45089000  0.14035000  1.0
  Ag  Ag6  1  0.67730000  0.35360000  0.73227000  1.0
  Ag  Ag7  1  0.93331000  0.54911000  0.64035000  1.0
  Ag  Ag8  1  0.35360000  0.67730000  0.26773000  1.0
  Ag  Ag9  1  0.54911000  0.93331000  0.35965000  1.0
  Ag  Ag10  1  0.64640000  0.32270000  0.76773000  1.0
  Ag  Ag11  1  0.45089000  0.06669000  0.85965000  1.0
  Ag  Ag12  1  0.17730000  0.14640000  0.01773000  1.0
  Ag  Ag13  1  0.43331000  0.95089000  0.10965000  1.0
  Ag  Ag14  1  0.82270000  0.85360000  0.51773000  1.0
  Ag  Ag15  1  0.56669000  0.04911000  0.60965000  1.0
  H  H16  1  0.94820000  0.29820000  0.07770000  1.0
  H  H17  1  0.68410000  0.27490000  0.13800000  1.0
  H  H18  1  0.77350000  0.03800000  0.06980000  1.0
  H  H19  1  0.05180000  0.70180000  0.57770000  1.0
  H  H20  1  0.31590000  0.72510000  0.63800000  1.0
  H  H21  1  0.22650000  0.96200000  0.56980000  1.0
  H  H22  1  0.20180000  0.44820000  0.32770000  1.0
  H  H23  1  0.22510000  0.18410000  0.38800000  1.0
  H  H24  1  0.46200000  0.27350000  0.31980000  1.0
  H  H25  1  0.79820000  0.55180000  0.82770000  1.0
  H  H26  1  0.77490000  0.81590000  0.88800000  1.0
  H  H27  1  0.53800000  0.72650000  0.81980000  1.0
  H  H28  1  0.55180000  0.79820000  0.17230000  1.0
  H  H29  1  0.81590000  0.77490000  0.11200000  1.0
  H  H30  1  0.72650000  0.53800000  0.18020000  1.0
  H  H31  1  0.44820000  0.20180000  0.67230000  1.0
  H  H32  1  0.18410000  0.22510000  0.61200000  1.0
  H  H33  1  0.27350000  0.46200000  0.68020000  1.0
  H  H34  1  0.29820000  0.94820000  0.92230000  1.0
  H  H35  1  0.27490000  0.68410000  0.86200000  1.0
  H  H36  1  0.03800000  0.77350000  0.93020000  1.0
  H  H37  1  0.70180000  0.05180000  0.42230000  1.0
  H  H38  1  0.72510000  0.31590000  0.36200000  1.0
  H  H39  1  0.96200000  0.22650000  0.43020000  1.0
  W  W40  1  0.69443000  0.49956000  0.04547000  1.0
  W  W41  1  0.67226000  0.50278000  0.94225000  1.0
  W  W42  1  0.64041000  0.25313000  0.99395000  1.0
  W  W43  1  0.41937000  0.22751000  0.94804000  1.0
  W  W44  1  0.42385000  0.20730000  0.03870000  1.0
  W  W45  1  0.48925000  0.43895000  0.09727000  1.0
  W  W46  1  0.30557000  0.50044000  0.54547000  1.0
  W  W47  1  0.32774000  0.49722000  0.44225000  1.0
  W  W48  1  0.35959000  0.74687000  0.49395000  1.0
  W  W49  1  0.58063000  0.77249000  0.44804000  1.0
  W  W50  1  0.57615000  0.79270000  0.53870000  1.0
  W  W51  1  0.51075000  0.56105000  0.59727000  1.0
  W  W52  1  0.00044000  0.19443000  0.29547000  1.0
  W  W53  1  0.99722000  0.17226000  0.19225000  1.0
  W  W54  1  0.24687000  0.14041000  0.24395000  1.0
  W  W55  1  0.27249000  0.91937000  0.19804000  1.0
  W  W56  1  0.29270000  0.92385000  0.28870000  1.0
  W  W57  1  0.06105000  0.98925000  0.34727000  1.0
  W  W58  1  0.99956000  0.80557000  0.79547000  1.0
  W  W59  1  0.00278000  0.82774000  0.69225000  1.0
  W  W60  1  0.75313000  0.85959000  0.74395000  1.0
  W  W61  1  0.72751000  0.08063000  0.69804000  1.0
  W  W62  1  0.70730000  0.07615000  0.78870000  1.0
  W  W63  1  0.93895000  0.01075000  0.84727000  1.0
  W  W64  1  0.80557000  0.99956000  0.20453000  1.0
  W  W65  1  0.82774000  0.00278000  0.30775000  1.0
  W  W66  1  0.85959000  0.75313000  0.25605000  1.0
  W  W67  1  0.08063000  0.72751000  0.30196000  1.0
  W  W68  1  0.07615000  0.70730000  0.21130000  1.0
  W  W69  1  0.01075000  0.93895000  0.15273000  1.0
  W  W70  1  0.19443000  0.00044000  0.70453000  1.0
  W  W71  1  0.17226000  0.99722000  0.80775000  1.0
  W  W72  1  0.14041000  0.24687000  0.75605000  1.0
  W  W73  1  0.91937000  0.27249000  0.80196000  1.0
  W  W74  1  0.92385000  0.29270000  0.71130000  1.0
  W  W75  1  0.98925000  0.06105000  0.65273000  1.0
  W  W76  1  0.49956000  0.69443000  0.95453000  1.0
  W  W77  1  0.50278000  0.67226000  0.05775000  1.0
  W  W78  1  0.25313000  0.64041000  0.00605000  1.0
  W  W79  1  0.22751000  0.41937000  0.05196000  1.0
  W  W80  1  0.20730000  0.42385000  0.96130000  1.0
  W  W81  1  0.43895000  0.48925000  0.90273000  1.0
  W  W82  1  0.50044000  0.30557000  0.45453000  1.0
  W  W83  1  0.49722000  0.32774000  0.55775000  1.0
  W  W84  1  0.74687000  0.35959000  0.50605000  1.0
  W  W85  1  0.77249000  0.58063000  0.55196000  1.0
  W  W86  1  0.79270000  0.57615000  0.46130000  1.0
  W  W87  1  0.56105000  0.51075000  0.40273000  1.0
  C  C88  1  0.71770000  0.14640000  0.10660000  1.0
  C  C89  1  0.89010000  0.25890000  0.08520000  1.0
  C  C90  1  0.61880000  0.08990000  0.11790000  1.0
  C  C91  1  0.73290000  0.24510000  0.12170000  1.0
  C  C92  1  0.78600000  0.10410000  0.08000000  1.0
  C  C93  1  0.94690000  0.12510000  0.03870000  1.0
  C  C94  1  0.87350000  0.16300000  0.06890000  1.0
  C  C95  1  0.28230000  0.85360000  0.60660000  1.0
  C  C96  1  0.10990000  0.74110000  0.58520000  1.0
  C  C97  1  0.38120000  0.91010000  0.61790000  1.0
  C  C98  1  0.26710000  0.75490000  0.62170000  1.0
  C  C99  1  0.21400000  0.89590000  0.58000000  1.0
  C  C100  1  0.05310000  0.87490000  0.53870000  1.0
  C  C101  1  0.12650000  0.83700000  0.56890000  1.0
  C  C102  1  0.35360000  0.21770000  0.35660000  1.0
  C  C103  1  0.24110000  0.39010000  0.33520000  1.0
  C  C104  1  0.41010000  0.11880000  0.36790000  1.0
  C  C105  1  0.25490000  0.23290000  0.37170000  1.0
  C  C106  1  0.39590000  0.28600000  0.33000000  1.0
  C  C107  1  0.37490000  0.44690000  0.28870000  1.0
  C  C108  1  0.33700000  0.37350000  0.31890000  1.0
  C  C109  1  0.64640000  0.78230000  0.85660000  1.0
  C  C110  1  0.75890000  0.60990000  0.83520000  1.0
  C  C111  1  0.58990000  0.88120000  0.86790000  1.0
  C  C112  1  0.74510000  0.76710000  0.87170000  1.0
  C  C113  1  0.60410000  0.71400000  0.83000000  1.0
  C  C114  1  0.62510000  0.55310000  0.78870000  1.0
  C  C115  1  0.66300000  0.62650000  0.81890000  1.0
  C  C116  1  0.78230000  0.64640000  0.14340000  1.0
  C  C117  1  0.60990000  0.75890000  0.16480000  1.0
  C  C118  1  0.88120000  0.58990000  0.13210000  1.0
  C  C119  1  0.76710000  0.74510000  0.12830000  1.0
  C  C120  1  0.71400000  0.60410000  0.17000000  1.0
  C  C121  1  0.55310000  0.62510000  0.21130000  1.0
  C  C122  1  0.62650000  0.66300000  0.18110000  1.0
  C  C123  1  0.21770000  0.35360000  0.64340000  1.0
  C  C124  1  0.39010000  0.24110000  0.66480000  1.0
  C  C125  1  0.11880000  0.41010000  0.63210000  1.0
  C  C126  1  0.23290000  0.25490000  0.62830000  1.0
  C  C127  1  0.28600000  0.39590000  0.67000000  1.0
  C  C128  1  0.44690000  0.37490000  0.71130000  1.0
  C  C129  1  0.37350000  0.33700000  0.68110000  1.0
  C  C130  1  0.14640000  0.71770000  0.89340000  1.0
  C  C131  1  0.25890000  0.89010000  0.91480000  1.0
  C  C132  1  0.08990000  0.61880000  0.88210000  1.0
  C  C133  1  0.24510000  0.73290000  0.87830000  1.0
  C  C134  1  0.10410000  0.78600000  0.92000000  1.0
  C  C135  1  0.12510000  0.94690000  0.96130000  1.0
  C  C136  1  0.16300000  0.87350000  0.93110000  1.0
  C  C137  1  0.85360000  0.28230000  0.39340000  1.0
  C  C138  1  0.74110000  0.10990000  0.41480000  1.0
  C  C139  1  0.91010000  0.38120000  0.38210000  1.0
  C  C140  1  0.75490000  0.26710000  0.37830000  1.0
  C  C141  1  0.89590000  0.21400000  0.42000000  1.0
  C  C142  1  0.87490000  0.05310000  0.46130000  1.0
  C  C143  1  0.83700000  0.12650000  0.43110000  1.0
  N  N144  1  0.82560000  0.29910000  0.11150000  1.0
  N  N145  1  0.17440000  0.70090000  0.61150000  1.0
  N  N146  1  0.20090000  0.32560000  0.36150000  1.0
  N  N147  1  0.79910000  0.67440000  0.86150000  1.0
  N  N148  1  0.67440000  0.79910000  0.13850000  1.0
  N  N149  1  0.32560000  0.20090000  0.63850000  1.0
  N  N150  1  0.29910000  0.82560000  0.88850000  1.0
  N  N151  1  0.70090000  0.17440000  0.38850000  1.0
  O  O152  1  0.56230000  0.17970000  0.95260000  1.0
  O  O153  1  0.70360000  0.53180000  0.99440000  1.0
  O  O154  1  0.51770000  0.50470000  0.04060000  1.0
  O  O155  1  0.68130000  0.35420000  0.02950000  1.0
  O  O156  1  0.47880000  0.30680000  0.07480000  1.0
  O  O157  1  0.38220000  0.14190000  0.99300000  1.0
  O  O158  1  0.45090000  0.33860000  0.91660000  1.0
  O  O159  1  0.61170000  0.99390000  0.10890000  1.0
  O  O160  1  0.59480000  0.48320000  0.89750000  1.0
  O  O161  1  0.28590000  0.29760000  0.95730000  1.0
  O  O162  1  0.66700000  0.36160000  0.95630000  1.0
  O  O163  1  0.57240000  0.16720000  0.02920000  1.0
  O  O164  1  0.48000000  0.31470000  0.99498000  1.0
  O  O165  1  0.38060000  0.13050000  0.91680000  1.0
  O  O166  1  0.63670000  0.44880000  0.09378000  1.0
  O  O167  1  0.65490000  0.63800000  0.05970000  1.0
  O  O168  1  0.54930000  0.13940000  0.13540000  1.0
  O  O169  1  0.93270000  0.03420000  0.02700000  1.0
  O  O170  1  0.01540000  0.18790000  0.02800000  1.0
  O  O171  1  0.43770000  0.82030000  0.45260000  1.0
  O  O172  1  0.29640000  0.46820000  0.49440000  1.0
  O  O173  1  0.48230000  0.49530000  0.54060000  1.0
  O  O174  1  0.31870000  0.64580000  0.52950000  1.0
  O  O175  1  0.52120000  0.69320000  0.57480000  1.0
  O  O176  1  0.61780000  0.85810000  0.49300000  1.0
  O  O177  1  0.54910000  0.66140000  0.41660000  1.0
  O  O178  1  0.38830000  0.00610000  0.60890000  1.0
  O  O179  1  0.40520000  0.51680000  0.39750000  1.0
  O  O180  1  0.71410000  0.70240000  0.45730000  1.0
  O  O181  1  0.33300000  0.63840000  0.45630000  1.0
  O  O182  1  0.42760000  0.83280000  0.52920000  1.0
  O  O183  1  0.52000000  0.68530000  0.49498000  1.0
  O  O184  1  0.61940000  0.86950000  0.41680000  1.0
  O  O185  1  0.36330000  0.55120000  0.59378000  1.0
  O  O186  1  0.34510000  0.36200000  0.55970000  1.0
  O  O187  1  0.45070000  0.86060000  0.63540000  1.0
  O  O188  1  0.06730000  0.96580000  0.52700000  1.0
  O  O189  1  0.98460000  0.81210000  0.52800000  1.0
  O  O190  1  0.32030000  0.06230000  0.20260000  1.0
  O  O191  1  0.96820000  0.20360000  0.24440000  1.0
  O  O192  1  0.99530000  0.01770000  0.29060000  1.0
  O  O193  1  0.14580000  0.18130000  0.27950000  1.0
  O  O194  1  0.19320000  0.97880000  0.32480000  1.0
  O  O195  1  0.35810000  0.88220000  0.24300000  1.0
  O  O196  1  0.16140000  0.95090000  0.16660000  1.0
  O  O197  1  0.50610000  0.11170000  0.35890000  1.0
  O  O198  1  0.01680000  0.09480000  0.14750000  1.0
  O  O199  1  0.20240000  0.78590000  0.20730000  1.0
  O  O200  1  0.13840000  0.16700000  0.20630000  1.0
  O  O201  1  0.33280000  0.07240000  0.27920000  1.0
  O  O202  1  0.18530000  0.98000000  0.24498000  1.0
  O  O203  1  0.36950000  0.88060000  0.16680000  1.0
  O  O204  1  0.05120000  0.13670000  0.34378000  1.0
  O  O205  1  0.86200000  0.15490000  0.30970000  1.0
  O  O206  1  0.36060000  0.04930000  0.38540000  1.0
  O  O207  1  0.46580000  0.43270000  0.27700000  1.0
  O  O208  1  0.31210000  0.51540000  0.27800000  1.0
  O  O209  1  0.67970000  0.93770000  0.70260000  1.0
  O  O210  1  0.03180000  0.79640000  0.74440000  1.0
  O  O211  1  0.00470000  0.98230000  0.79060000  1.0
  O  O212  1  0.85420000  0.81870000  0.77950000  1.0
  O  O213  1  0.80680000  0.02120000  0.82480000  1.0
  O  O214  1  0.64190000  0.11780000  0.74300000  1.0
  O  O215  1  0.83860000  0.04910000  0.66666667  1.0
  O  O216  1  0.49390000  0.88830000  0.85890000  1.0
  O  O217  1  0.98320000  0.90520000  0.64750000  1.0
  O  O218  1  0.79760000  0.21410000  0.70730000  1.0
  O  O219  1  0.86160000  0.83300000  0.70630000  1.0
  O  O220  1  0.66720000  0.92760000  0.77920000  1.0
  O  O221  1  0.81470000  0.02000000  0.74498000  1.0
  O  O222  1  0.63050000  0.11940000  0.66680000  1.0
  O  O223  1  0.94880000  0.86330000  0.84378000  1.0
  O  O224  1  0.13800000  0.84510000  0.80970000  1.0
  O  O225  1  0.63940000  0.95070000  0.88540000  1.0
  O  O226  1  0.53420000  0.56730000  0.77700000  1.0
  O  O227  1  0.68790000  0.48460000  0.77800000  1.0
  O  O228  1  0.93770000  0.67970000  0.29740000  1.0
  O  O229  1  0.79640000  0.03180000  0.25560000  1.0
  O  O230  1  0.98230000  0.00470000  0.20940000  1.0
  O  O231  1  0.81870000  0.85420000  0.22050000  1.0
  O  O232  1  0.02120000  0.80680000  0.17520000  1.0
  O  O233  1  0.11780000  0.64190000  0.25700000  1.0
  O  O234  1  0.04910000  0.83860000  0.33340000  1.0
  O  O235  1  0.88830000  0.49390000  0.14110000  1.0
  O  O236  1  0.90520000  0.98320000  0.35250000  1.0
  O  O237  1  0.21410000  0.79760000  0.29270000  1.0
  O  O238  1  0.83300000  0.86160000  0.29370000  1.0
  O  O239  1  0.92760000  0.66720000  0.22080000  1.0
  O  O240  1  0.02000000  0.81470000  0.25502000  1.0
  O  O241  1  0.11940000  0.63050000  0.33320000  1.0
  O  O242  1  0.86330000  0.94880000  0.15622000  1.0
  O  O243  1  0.84510000  0.13800000  0.19030000  1.0
  O  O244  1  0.95070000  0.63940000  0.11460000  1.0
  O  O245  1  0.56730000  0.53420000  0.22300000  1.0
  O  O246  1  0.48460000  0.68790000  0.22200000  1.0
  O  O247  1  0.06230000  0.32030000  0.79740000  1.0
  O  O248  1  0.20360000  0.96820000  0.75560000  1.0
  O  O249  1  0.01770000  0.99530000  0.70940000  1.0
  O  O250  1  0.18130000  0.14580000  0.72050000  1.0
  O  O251  1  0.97880000  0.19320000  0.67520000  1.0
  O  O252  1  0.88220000  0.35810000  0.75700000  1.0
  O  O253  1  0.95090000  0.16140000  0.83340000  1.0
  O  O254  1  0.11170000  0.50610000  0.64110000  1.0
  O  O255  1  0.09480000  0.01680000  0.85250000  1.0
  O  O256  1  0.78590000  0.20240000  0.79270000  1.0
  O  O257  1  0.16700000  0.13840000  0.79370000  1.0
  O  O258  1  0.07240000  0.33280000  0.72080000  1.0
  O  O259  1  0.98000000  0.18530000  0.75502000  1.0
  O  O260  1  0.88060000  0.36950000  0.83320000  1.0
  O  O261  1  0.13670000  0.05120000  0.65622000  1.0
  O  O262  1  0.15490000  0.86200000  0.69030000  1.0
  O  O263  1  0.04930000  0.36060000  0.61460000  1.0
  O  O264  1  0.43270000  0.46580000  0.72300000  1.0
  O  O265  1  0.51540000  0.31210000  0.72200000  1.0
  O  O266  1  0.17970000  0.56230000  0.04740000  1.0
  O  O267  1  0.53180000  0.70360000  0.00560000  1.0
  O  O268  1  0.50470000  0.51770000  0.95940000  1.0
  O  O269  1  0.35420000  0.68130000  0.97050000  1.0
  O  O270  1  0.30680000  0.47880000  0.92520000  1.0
  O  O271  1  0.14190000  0.38220000  0.00700000  1.0
  O  O272  1  0.33860000  0.45090000  0.08340000  1.0
  O  O273  1  0.99390000  0.61170000  0.89110000  1.0
  O  O274  1  0.48320000  0.59480000  0.10250000  1.0
  O  O275  1  0.29760000  0.28590000  0.04270000  1.0
  O  O276  1  0.36160000  0.66700000  0.04370000  1.0
  O  O277  1  0.16720000  0.57240000  0.97080000  1.0
  O  O278  1  0.31470000  0.48000000  0.00502000  1.0
  O  O279  1  0.13050000  0.38060000  0.08320000  1.0
  O  O280  1  0.44880000  0.63670000  0.90622000  1.0
  O  O281  1  0.63800000  0.65490000  0.94030000  1.0
  O  O282  1  0.13940000  0.54930000  0.86460000  1.0
  O  O283  1  0.03420000  0.93270000  0.97300000  1.0
  O  O284  1  0.18790000  0.01540000  0.97200000  1.0
  O  O285  1  0.82030000  0.43770000  0.54740000  1.0
  O  O286  1  0.46820000  0.29640000  0.50560000  1.0
  O  O287  1  0.49530000  0.48230000  0.45940000  1.0
  O  O288  1  0.64580000  0.31870000  0.47050000  1.0
  O  O289  1  0.69320000  0.52120000  0.42520000  1.0
  O  O290  1  0.85810000  0.61780000  0.50700000  1.0
  O  O291  1  0.66140000  0.54910000  0.58340000  1.0
  O  O292  1  0.00610000  0.38830000  0.39110000  1.0
  O  O293  1  0.51680000  0.40520000  0.60250000  1.0
  O  O294  1  0.70240000  0.71410000  0.54270000  1.0
  O  O295  1  0.63840000  0.33300000  0.54370000  1.0
  O  O296  1  0.83280000  0.42760000  0.47080000  1.0
  O  O297  1  0.68530000  0.52000000  0.50502000  1.0
  O  O298  1  0.86950000  0.61940000  0.58320000  1.0
  O  O299  1  0.55120000  0.36330000  0.40622000  1.0
  O  O300  1  0.36200000  0.34510000  0.44030000  1.0
  O  O301  1  0.86060000  0.45070000  0.36460000  1.0
  O  O302  1  0.96580000  0.06730000  0.47300000  1.0
  O  O303  1  0.81210000  0.98460000  0.47200000  1.0
