# generated using pymatgen
data_Zn4H22C42N4O13
_symmetry_space_group_name_H-M   'P 1'
_cell_length_a   11.01920000
_cell_length_b   11.01920000
_cell_length_c   17.03880000
_cell_angle_alpha   91.65390000
_cell_angle_beta   91.65390000
_cell_angle_gamma   90.66770000
_symmetry_Int_Tables_number   1
_chemical_formula_structural   Zn4H22C42N4O13
_chemical_formula_sum   'Zn8 H44 C84 N8 O26'
_cell_volume   2067.01342818
_cell_formula_units_Z   2
loop_
 _symmetry_equiv_pos_site_id
 _symmetry_equiv_pos_as_xyz
  1  'x, y, z'
loop_
 _atom_site_type_symbol
 _atom_site_label
 _atom_site_symmetry_multiplicity
 _atom_site_fract_x
 _atom_site_fract_y
 _atom_site_fract_z
 _atom_site_occupancy
  Zn  Zn0  1  0.46298000  0.65636000  0.81743000  1.0
  Zn  Zn1  1  0.81551000  0.30249000  0.17482000  1.0
  Zn  Zn2  1  0.34364000  0.53702000  0.68257000  1.0
  Zn  Zn3  1  0.69751000  0.18449000  0.32518000  1.0
  Zn  Zn4  1  0.53702000  0.34364000  0.18257000  1.0
  Zn  Zn5  1  0.18449000  0.69751000  0.82518000  1.0
  Zn  Zn6  1  0.65636000  0.46298000  0.31743000  1.0
  Zn  Zn7  1  0.30249000  0.81551000  0.67482000  1.0
  H  H8  1  0.56030000  0.65170000  0.03710000  1.0
  H  H9  1  0.69440000  0.82300000  0.23180000  1.0
  H  H10  1  0.67820000  0.99540000  0.02940000  1.0
  H  H11  1  0.00720000  0.79200000  0.12770000  1.0
  H  H12  1  0.92270000  0.76730000  0.98450000  1.0
  H  H13  1  0.67240000  0.25900000  0.88230000  1.0
  H  H14  1  0.72490000  0.45350000  0.85190000  1.0
  H  H15  1  0.82790000  0.65150000  0.89190000  1.0
  H  H16  1  0.03130000  0.71070000  0.24820000  1.0
  H  H17  1  0.70620000  0.19660000  0.00720000  1.0
  H  H18  1  0.96150000  0.51630000  0.26890000  1.0
  H  H19  1  0.34830000  0.43970000  0.46290000  1.0
  H  H20  1  0.17700000  0.30560000  0.26820000  1.0
  H  H21  1  0.00460000  0.32180000  0.47060000  1.0
  H  H22  1  0.20800000  0.99280000  0.37230000  1.0
  H  H23  1  0.23270000  0.07730000  0.51550000  1.0
  H  H24  1  0.74100000  0.32760000  0.61770000  1.0
  H  H25  1  0.54650000  0.27510000  0.64810000  1.0
  H  H26  1  0.34850000  0.17210000  0.60810000  1.0
  H  H27  1  0.28930000  0.96870000  0.25180000  1.0
  H  H28  1  0.80340000  0.29380000  0.49280000  1.0
  H  H29  1  0.48370000  0.03850000  0.23110000  1.0
  H  H30  1  0.43970000  0.34830000  0.96290000  1.0
  H  H31  1  0.30560000  0.17700000  0.76820000  1.0
  H  H32  1  0.32180000  0.00460000  0.97060000  1.0
  H  H33  1  0.99280000  0.20800000  0.87230000  1.0
  H  H34  1  0.07730000  0.23270000  0.01550000  1.0
  H  H35  1  0.32760000  0.74100000  0.11770000  1.0
  H  H36  1  0.27510000  0.54650000  0.14810000  1.0
  H  H37  1  0.17210000  0.34850000  0.10810000  1.0
  H  H38  1  0.96870000  0.28930000  0.75180000  1.0
  H  H39  1  0.29380000  0.80340000  0.99280000  1.0
  H  H40  1  0.03850000  0.48370000  0.73110000  1.0
  H  H41  1  0.65170000  0.56030000  0.53710000  1.0
  H  H42  1  0.82300000  0.69440000  0.73180000  1.0
  H  H43  1  0.99540000  0.67820000  0.52940000  1.0
  H  H44  1  0.79200000  0.00720000  0.62770000  1.0
  H  H45  1  0.76730000  0.92270000  0.48450000  1.0
  H  H46  1  0.25900000  0.67240000  0.38230000  1.0
  H  H47  1  0.45350000  0.72490000  0.35190000  1.0
  H  H48  1  0.65150000  0.82790000  0.39190000  1.0
  H  H49  1  0.71070000  0.03130000  0.74820000  1.0
  H  H50  1  0.19660000  0.70620000  0.50720000  1.0
  H  H51  1  0.51630000  0.96150000  0.76890000  1.0
  C  C52  1  0.69280000  0.92700000  0.13720000  1.0
  C  C53  1  0.59420000  0.72080000  0.06190000  1.0
  C  C54  1  0.73770000  0.03910000  0.17870000  1.0
  C  C55  1  0.61170000  0.82390000  0.01960000  1.0
  C  C56  1  0.67440000  0.82320000  0.17840000  1.0
  C  C57  1  0.57580000  0.82380000  0.93320000  1.0
  C  C58  1  0.62700000  0.71920000  0.14170000  1.0
  C  C59  1  0.66330000  0.92630000  0.05780000  1.0
  C  C60  1  0.61080000  0.60360000  0.18430000  1.0
  C  C61  1  0.97800000  0.71420000  0.13640000  1.0
  C  C62  1  0.89670000  0.68970000  0.99670000  1.0
  C  C63  1  0.70860000  0.31140000  0.92010000  1.0
  C  C64  1  0.74130000  0.42590000  0.90220000  1.0
  C  C65  1  0.84020000  0.62100000  0.94170000  1.0
  C  C66  1  0.99280000  0.66620000  0.20740000  1.0
  C  C67  1  0.79800000  0.50160000  0.95680000  1.0
  C  C68  1  0.91860000  0.64700000  0.07480000  1.0
  C  C69  1  0.73030000  0.27490000  0.99500000  1.0
  C  C70  1  0.87670000  0.53050000  0.09210000  1.0
  C  C71  1  0.94950000  0.54870000  0.21950000  1.0
  C  C72  1  0.81750000  0.45670000  0.03260000  1.0
  C  C73  1  0.07300000  0.30720000  0.36280000  1.0
  C  C74  1  0.27920000  0.40580000  0.43810000  1.0
  C  C75  1  0.96090000  0.26230000  0.32130000  1.0
  C  C76  1  0.17610000  0.38830000  0.48040000  1.0
  C  C77  1  0.17680000  0.32560000  0.32160000  1.0
  C  C78  1  0.17620000  0.42420000  0.56680000  1.0
  C  C79  1  0.28080000  0.37300000  0.35830000  1.0
  C  C80  1  0.07370000  0.33670000  0.44220000  1.0
  C  C81  1  0.39640000  0.38920000  0.31570000  1.0
  C  C82  1  0.28580000  0.02200000  0.36360000  1.0
  C  C83  1  0.31030000  0.10330000  0.50330000  1.0
  C  C84  1  0.68860000  0.29140000  0.57990000  1.0
  C  C85  1  0.57410000  0.25870000  0.59780000  1.0
  C  C86  1  0.37900000  0.15980000  0.55830000  1.0
  C  C87  1  0.33380000  0.00720000  0.29260000  1.0
  C  C88  1  0.49840000  0.20200000  0.54320000  1.0
  C  C89  1  0.35300000  0.08140000  0.42520000  1.0
  C  C90  1  0.72510000  0.26970000  0.50500000  1.0
  C  C91  1  0.46950000  0.12330000  0.40790000  1.0
  C  C92  1  0.45130000  0.05050000  0.28050000  1.0
  C  C93  1  0.54330000  0.18250000  0.46740000  1.0
  C  C94  1  0.30720000  0.07300000  0.86280000  1.0
  C  C95  1  0.40580000  0.27920000  0.93810000  1.0
  C  C96  1  0.26230000  0.96090000  0.82130000  1.0
  C  C97  1  0.38830000  0.17610000  0.98040000  1.0
  C  C98  1  0.32560000  0.17680000  0.82160000  1.0
  C  C99  1  0.42420000  0.17620000  0.06680000  1.0
  C  C100  1  0.37300000  0.28080000  0.85830000  1.0
  C  C101  1  0.33670000  0.07370000  0.94220000  1.0
  C  C102  1  0.38920000  0.39640000  0.81570000  1.0
  C  C103  1  0.02200000  0.28580000  0.86360000  1.0
  C  C104  1  0.10330000  0.31030000  0.00330000  1.0
  C  C105  1  0.29140000  0.68860000  0.07990000  1.0
  C  C106  1  0.25870000  0.57410000  0.09780000  1.0
  C  C107  1  0.15980000  0.37900000  0.05830000  1.0
  C  C108  1  0.00720000  0.33380000  0.79260000  1.0
  C  C109  1  0.20200000  0.49840000  0.04320000  1.0
  C  C110  1  0.08140000  0.35300000  0.92520000  1.0
  C  C111  1  0.26970000  0.72510000  0.00500000  1.0
  C  C112  1  0.12330000  0.46950000  0.90790000  1.0
  C  C113  1  0.05050000  0.45130000  0.78050000  1.0
  C  C114  1  0.18250000  0.54330000  0.96740000  1.0
  C  C115  1  0.92700000  0.69280000  0.63720000  1.0
  C  C116  1  0.72080000  0.59420000  0.56190000  1.0
  C  C117  1  0.03910000  0.73770000  0.67870000  1.0
  C  C118  1  0.82390000  0.61170000  0.51960000  1.0
  C  C119  1  0.82320000  0.67440000  0.67840000  1.0
  C  C120  1  0.82380000  0.57580000  0.43320000  1.0
  C  C121  1  0.71920000  0.62700000  0.64170000  1.0
  C  C122  1  0.92630000  0.66330000  0.55780000  1.0
  C  C123  1  0.60360000  0.61080000  0.68430000  1.0
  C  C124  1  0.71420000  0.97800000  0.63640000  1.0
  C  C125  1  0.68970000  0.89670000  0.49670000  1.0
  C  C126  1  0.31140000  0.70860000  0.42010000  1.0
  C  C127  1  0.42590000  0.74130000  0.40220000  1.0
  C  C128  1  0.62100000  0.84020000  0.44170000  1.0
  C  C129  1  0.66620000  0.99280000  0.70740000  1.0
  C  C130  1  0.50160000  0.79800000  0.45680000  1.0
  C  C131  1  0.64700000  0.91860000  0.57480000  1.0
  C  C132  1  0.27490000  0.73030000  0.49500000  1.0
  C  C133  1  0.53050000  0.87670000  0.59210000  1.0
  C  C134  1  0.54870000  0.94950000  0.71950000  1.0
  C  C135  1  0.45670000  0.81750000  0.53260000  1.0
  N  N136  1  0.89280000  0.48180000  0.16440000  1.0
  N  N137  1  0.78330000  0.34370000  0.05160000  1.0
  N  N138  1  0.51820000  0.10720000  0.33560000  1.0
  N  N139  1  0.65630000  0.21670000  0.44840000  1.0
  N  N140  1  0.10720000  0.51820000  0.83560000  1.0
  N  N141  1  0.21670000  0.65630000  0.94840000  1.0
  N  N142  1  0.48180000  0.89280000  0.66440000  1.0
  N  N143  1  0.34370000  0.78330000  0.55160000  1.0
  O  O144  1  0.50040000  0.73800000  0.91331000  1.0
  O  O145  1  0.61660000  0.89900000  0.89070000  1.0
  O  O146  1  0.77640000  0.12540000  0.13914000  1.0
  O  O147  1  0.73590000  0.04230000  0.25296000  1.0
  O  O148  1  0.57210000  0.51150000  0.14645000  1.0
  O  O149  1  0.63920000  0.60920000  0.25664000  1.0
  O  O150  1  0.26200000  0.49960000  0.58669000  1.0
  O  O151  1  0.10100000  0.38340000  0.60930000  1.0
  O  O152  1  0.87460000  0.22360000  0.36086000  1.0
  O  O153  1  0.95770000  0.26410000  0.24704000  1.0
  O  O154  1  0.48850000  0.42790000  0.35355000  1.0
  O  O155  1  0.39080000  0.36080000  0.24336000  1.0
  O  O156  1  0.49960000  0.26200000  0.08669000  1.0
  O  O157  1  0.38340000  0.10100000  0.10930000  1.0
  O  O158  1  0.22360000  0.87460000  0.86086000  1.0
  O  O159  1  0.26410000  0.95770000  0.74704000  1.0
  O  O160  1  0.42790000  0.48850000  0.85355000  1.0
  O  O161  1  0.36080000  0.39080000  0.74336000  1.0
  O  O162  1  0.73800000  0.50040000  0.41331000  1.0
  O  O163  1  0.89900000  0.61660000  0.39070000  1.0
  O  O164  1  0.12540000  0.77640000  0.63914000  1.0
  O  O165  1  0.04230000  0.73590000  0.75296000  1.0
  O  O166  1  0.51150000  0.57210000  0.64645000  1.0
  O  O167  1  0.60920000  0.63920000  0.75664000  1.0
  O  O168  1  0.31970000  0.68030000  0.75000000  1.0
  O  O169  1  0.68030000  0.31970000  0.25000000  1.0
