# generated using pymatgen
data_Ni3Mo12P8H16C20(N2O25)2
_symmetry_space_group_name_H-M   'P 1'
_cell_length_a   27.74500000
_cell_length_b   16.15830000
_cell_length_c   22.81920000
_cell_angle_alpha   90.00000000
_cell_angle_beta   90.00000000
_cell_angle_gamma   90.00000000
_symmetry_Int_Tables_number   1
_chemical_formula_structural   Ni3Mo12P8H16C20(N2O25)2
_chemical_formula_sum   'Ni12 Mo48 P32 H64 C80 N16 O200'
_cell_volume   10230.12195484
_cell_formula_units_Z   4
loop_
 _symmetry_equiv_pos_site_id
 _symmetry_equiv_pos_as_xyz
  1  'x, y, z'
loop_
 _atom_site_type_symbol
 _atom_site_label
 _atom_site_symmetry_multiplicity
 _atom_site_fract_x
 _atom_site_fract_y
 _atom_site_fract_z
 _atom_site_occupancy
  Ni  Ni0  1  0.00000000  0.00000000  0.50000000  1.0
  Ni  Ni1  1  0.50000000  0.50000000  0.50000000  1.0
  Ni  Ni2  1  0.00000000  0.50000000  0.00000000  1.0
  Ni  Ni3  1  0.50000000  0.00000000  0.00000000  1.0
  Ni  Ni4  1  0.75000000  0.75000000  0.34202000  1.0
  Ni  Ni5  1  0.25000000  0.25000000  0.15798000  1.0
  Ni  Ni6  1  0.25000000  0.25000000  0.65798000  1.0
  Ni  Ni7  1  0.75000000  0.75000000  0.84202000  1.0
  Ni  Ni8  1  0.25000000  0.75000000  0.33384000  1.0
  Ni  Ni9  1  0.75000000  0.25000000  0.16616000  1.0
  Ni  Ni10  1  0.75000000  0.25000000  0.66616000  1.0
  Ni  Ni11  1  0.25000000  0.75000000  0.83384000  1.0
  Mo  Mo12  1  0.04952000  0.79899000  0.43920000  1.0
  Mo  Mo13  1  0.93319000  0.10353000  0.37375000  1.0
  Mo  Mo14  1  0.06018000  0.11225000  0.36951000  1.0
  Mo  Mo15  1  0.88931000  0.96777000  0.40365000  1.0
  Mo  Mo16  1  0.10993000  0.98124000  0.39677000  1.0
  Mo  Mo17  1  0.95576000  0.79250000  0.44344000  1.0
  Mo  Mo18  1  0.45048000  0.70101000  0.43920000  1.0
  Mo  Mo19  1  0.56681000  0.39647000  0.37375000  1.0
  Mo  Mo20  1  0.43982000  0.38775000  0.36951000  1.0
  Mo  Mo21  1  0.61069000  0.53223000  0.40365000  1.0
  Mo  Mo22  1  0.39007000  0.51876000  0.39677000  1.0
  Mo  Mo23  1  0.54424000  0.70750000  0.44344000  1.0
  Mo  Mo24  1  0.95048000  0.29899000  0.06080000  1.0
  Mo  Mo25  1  0.06681000  0.60353000  0.12625000  1.0
  Mo  Mo26  1  0.93982000  0.61225000  0.13049000  1.0
  Mo  Mo27  1  0.11069000  0.46777000  0.09635000  1.0
  Mo  Mo28  1  0.89007000  0.48124000  0.10323000  1.0
  Mo  Mo29  1  0.04424000  0.29250000  0.05656000  1.0
  Mo  Mo30  1  0.54952000  0.20101000  0.06080000  1.0
  Mo  Mo31  1  0.43319000  0.89647000  0.12625000  1.0
  Mo  Mo32  1  0.56018000  0.88775000  0.13049000  1.0
  Mo  Mo33  1  0.38931000  0.03223000  0.09635000  1.0
  Mo  Mo34  1  0.60993000  0.01876000  0.10323000  1.0
  Mo  Mo35  1  0.45576000  0.20750000  0.05656000  1.0
  Mo  Mo36  1  0.95048000  0.20101000  0.56080000  1.0
  Mo  Mo37  1  0.06681000  0.89647000  0.62625000  1.0
  Mo  Mo38  1  0.93982000  0.88775000  0.63049000  1.0
  Mo  Mo39  1  0.11069000  0.03223000  0.59635000  1.0
  Mo  Mo40  1  0.89007000  0.01876000  0.60323000  1.0
  Mo  Mo41  1  0.04424000  0.20750000  0.55656000  1.0
  Mo  Mo42  1  0.54952000  0.29899000  0.56080000  1.0
  Mo  Mo43  1  0.43319000  0.60353000  0.62625000  1.0
  Mo  Mo44  1  0.56018000  0.61225000  0.63049000  1.0
  Mo  Mo45  1  0.38931000  0.46777000  0.59635000  1.0
  Mo  Mo46  1  0.60993000  0.48124000  0.60323000  1.0
  Mo  Mo47  1  0.45576000  0.29250000  0.55656000  1.0
  Mo  Mo48  1  0.04952000  0.70101000  0.93920000  1.0
  Mo  Mo49  1  0.93319000  0.39647000  0.87375000  1.0
  Mo  Mo50  1  0.06018000  0.38775000  0.86951000  1.0
  Mo  Mo51  1  0.88931000  0.53223000  0.90365000  1.0
  Mo  Mo52  1  0.10993000  0.51876000  0.89677000  1.0
  Mo  Mo53  1  0.95576000  0.70750000  0.94344000  1.0
  Mo  Mo54  1  0.45048000  0.79899000  0.93920000  1.0
  Mo  Mo55  1  0.56681000  0.10353000  0.87375000  1.0
  Mo  Mo56  1  0.43982000  0.11225000  0.86951000  1.0
  Mo  Mo57  1  0.61069000  0.96777000  0.90365000  1.0
  Mo  Mo58  1  0.39007000  0.98124000  0.89677000  1.0
  Mo  Mo59  1  0.54424000  0.79250000  0.94344000  1.0
  P  P60  1  0.86866000  0.78076000  0.34321000  1.0
  P  P61  1  0.13351000  0.79653000  0.33514000  1.0
  P  P62  1  0.99145000  0.18598000  0.26103000  1.0
  P  P63  1  0.99800000  0.93280000  0.33956000  1.0
  P  P64  1  0.63134000  0.71924000  0.34321000  1.0
  P  P65  1  0.36649000  0.70347000  0.33514000  1.0
  P  P66  1  0.50855000  0.31402000  0.26103000  1.0
  P  P67  1  0.50200000  0.56720000  0.33956000  1.0
  P  P68  1  0.13134000  0.28076000  0.15679000  1.0
  P  P69  1  0.86649000  0.29653000  0.16486000  1.0
  P  P70  1  0.00855000  0.68598000  0.23897000  1.0
  P  P71  1  0.00200000  0.43280000  0.16044000  1.0
  P  P72  1  0.36866000  0.21924000  0.15679000  1.0
  P  P73  1  0.63351000  0.20347000  0.16486000  1.0
  P  P74  1  0.49145000  0.81402000  0.23897000  1.0
  P  P75  1  0.49800000  0.06720000  0.16044000  1.0
  P  P76  1  0.13134000  0.21924000  0.65679000  1.0
  P  P77  1  0.86649000  0.20347000  0.66486000  1.0
  P  P78  1  0.00855000  0.81402000  0.73897000  1.0
  P  P79  1  0.00200000  0.06720000  0.66044000  1.0
  P  P80  1  0.36866000  0.28076000  0.65679000  1.0
  P  P81  1  0.63351000  0.29653000  0.66486000  1.0
  P  P82  1  0.49145000  0.68598000  0.73897000  1.0
  P  P83  1  0.49800000  0.43280000  0.66044000  1.0
  P  P84  1  0.86866000  0.71924000  0.84321000  1.0
  P  P85  1  0.13351000  0.70347000  0.83514000  1.0
  P  P86  1  0.99145000  0.31402000  0.76103000  1.0
  P  P87  1  0.99800000  0.56720000  0.83956000  1.0
  P  P88  1  0.63134000  0.78076000  0.84321000  1.0
  P  P89  1  0.36649000  0.79653000  0.83514000  1.0
  P  P90  1  0.50855000  0.18598000  0.76103000  1.0
  P  P91  1  0.50200000  0.93280000  0.83956000  1.0
  H  H92  1  0.79690000  0.66200000  0.23880000  1.0
  H  H93  1  0.79870000  0.65970000  0.13870000  1.0
  H  H94  1  0.80920000  0.68520000  0.94680000  1.0
  H  H95  1  0.81080000  0.68300000  0.04740000  1.0
  H  H96  1  0.19230000  0.68300000  0.23050000  1.0
  H  H97  1  0.19140000  0.67910000  0.13020000  1.0
  H  H98  1  0.18650000  0.70000000  0.93850000  1.0
  H  H99  1  0.18510000  0.69780000  0.03930000  1.0
  H  H100  1  0.70310000  0.83800000  0.23880000  1.0
  H  H101  1  0.70130000  0.84030000  0.13870000  1.0
  H  H102  1  0.69080000  0.81480000  0.94680000  1.0
  H  H103  1  0.68920000  0.81700000  0.04740000  1.0
  H  H104  1  0.30770000  0.81700000  0.23050000  1.0
  H  H105  1  0.30860000  0.82090000  0.13020000  1.0
  H  H106  1  0.31350000  0.80000000  0.93850000  1.0
  H  H107  1  0.31490000  0.80220000  0.03930000  1.0
  H  H108  1  0.20310000  0.16200000  0.26120000  1.0
  H  H109  1  0.20130000  0.15970000  0.36130000  1.0
  H  H110  1  0.19080000  0.18520000  0.55320000  1.0
  H  H111  1  0.18920000  0.18300000  0.45260000  1.0
  H  H112  1  0.80770000  0.18300000  0.26950000  1.0
  H  H113  1  0.80860000  0.17910000  0.36980000  1.0
  H  H114  1  0.81350000  0.20000000  0.56150000  1.0
  H  H115  1  0.81490000  0.19780000  0.46070000  1.0
  H  H116  1  0.29690000  0.33800000  0.26120000  1.0
  H  H117  1  0.29870000  0.34030000  0.36130000  1.0
  H  H118  1  0.30920000  0.31480000  0.55320000  1.0
  H  H119  1  0.31080000  0.31700000  0.45260000  1.0
  H  H120  1  0.69230000  0.31700000  0.26950000  1.0
  H  H121  1  0.69140000  0.32090000  0.36980000  1.0
  H  H122  1  0.68650000  0.30000000  0.56150000  1.0
  H  H123  1  0.68510000  0.30220000  0.46070000  1.0
  H  H124  1  0.20310000  0.33800000  0.76120000  1.0
  H  H125  1  0.20130000  0.34030000  0.86130000  1.0
  H  H126  1  0.19080000  0.31480000  0.05320000  1.0
  H  H127  1  0.18920000  0.31700000  0.95260000  1.0
  H  H128  1  0.80770000  0.31700000  0.76950000  1.0
  H  H129  1  0.80860000  0.32090000  0.86980000  1.0
  H  H130  1  0.81350000  0.30000000  0.06150000  1.0
  H  H131  1  0.81490000  0.30220000  0.96070000  1.0
  H  H132  1  0.29690000  0.16200000  0.76120000  1.0
  H  H133  1  0.29870000  0.15970000  0.86130000  1.0
  H  H134  1  0.30920000  0.18520000  0.05320000  1.0
  H  H135  1  0.31080000  0.18300000  0.95260000  1.0
  H  H136  1  0.69230000  0.18300000  0.76950000  1.0
  H  H137  1  0.69140000  0.17910000  0.86980000  1.0
  H  H138  1  0.68650000  0.20000000  0.06150000  1.0
  H  H139  1  0.68510000  0.19780000  0.96070000  1.0
  H  H140  1  0.79690000  0.83800000  0.73880000  1.0
  H  H141  1  0.79870000  0.84030000  0.63870000  1.0
  H  H142  1  0.80920000  0.81480000  0.44680000  1.0
  H  H143  1  0.81080000  0.81700000  0.54740000  1.0
  H  H144  1  0.19230000  0.81700000  0.73050000  1.0
  H  H145  1  0.19140000  0.82090000  0.63020000  1.0
  H  H146  1  0.18650000  0.80000000  0.43850000  1.0
  H  H147  1  0.18510000  0.80220000  0.53930000  1.0
  H  H148  1  0.70310000  0.66200000  0.73880000  1.0
  H  H149  1  0.70130000  0.65970000  0.63870000  1.0
  H  H150  1  0.69080000  0.68520000  0.44680000  1.0
  H  H151  1  0.68920000  0.68300000  0.54740000  1.0
  H  H152  1  0.30770000  0.68300000  0.73050000  1.0
  H  H153  1  0.30860000  0.67910000  0.63020000  1.0
  H  H154  1  0.31350000  0.70000000  0.43850000  1.0
  H  H155  1  0.31490000  0.69780000  0.53930000  1.0
  C  C156  1  0.77740000  0.69880000  0.21850000  1.0
  C  C157  1  0.77860000  0.69690000  0.15790000  1.0
  C  C158  1  0.78470000  0.71190000  0.96720000  1.0
  C  C159  1  0.78600000  0.71040000  0.02800000  1.0
  C  C160  1  0.21640000  0.71070000  0.21020000  1.0
  C  C161  1  0.21550000  0.70860000  0.14940000  1.0
  C  C162  1  0.21290000  0.72070000  0.95890000  1.0
  C  C163  1  0.21170000  0.71930000  0.01990000  1.0
  C  C164  1  0.72260000  0.80120000  0.21850000  1.0
  C  C165  1  0.72140000  0.80310000  0.15790000  1.0
  C  C166  1  0.71530000  0.78810000  0.96720000  1.0
  C  C167  1  0.71400000  0.78960000  0.02800000  1.0
  C  C168  1  0.28360000  0.78930000  0.21020000  1.0
  C  C169  1  0.28450000  0.79140000  0.14940000  1.0
  C  C170  1  0.28710000  0.77930000  0.95890000  1.0
  C  C171  1  0.28830000  0.78070000  0.01990000  1.0
  C  C172  1  0.22260000  0.19880000  0.28150000  1.0
  C  C173  1  0.22140000  0.19690000  0.34210000  1.0
  C  C174  1  0.21530000  0.21190000  0.53280000  1.0
  C  C175  1  0.21400000  0.21040000  0.47200000  1.0
  C  C176  1  0.78360000  0.21070000  0.28980000  1.0
  C  C177  1  0.78450000  0.20860000  0.35060000  1.0
  C  C178  1  0.78710000  0.22070000  0.54110000  1.0
  C  C179  1  0.78830000  0.21930000  0.48010000  1.0
  C  C180  1  0.27740000  0.30120000  0.28150000  1.0
  C  C181  1  0.27860000  0.30310000  0.34210000  1.0
  C  C182  1  0.28470000  0.28810000  0.53280000  1.0
  C  C183  1  0.28600000  0.28960000  0.47200000  1.0
  C  C184  1  0.71640000  0.28930000  0.28980000  1.0
  C  C185  1  0.71550000  0.29140000  0.35060000  1.0
  C  C186  1  0.71290000  0.27930000  0.54110000  1.0
  C  C187  1  0.71170000  0.28070000  0.48010000  1.0
  C  C188  1  0.22260000  0.30120000  0.78150000  1.0
  C  C189  1  0.22140000  0.30310000  0.84210000  1.0
  C  C190  1  0.21530000  0.28810000  0.03280000  1.0
  C  C191  1  0.21400000  0.28960000  0.97200000  1.0
  C  C192  1  0.78360000  0.28930000  0.78980000  1.0
  C  C193  1  0.78450000  0.29140000  0.85060000  1.0
  C  C194  1  0.78710000  0.27930000  0.04110000  1.0
  C  C195  1  0.78830000  0.28070000  0.98010000  1.0
  C  C196  1  0.27740000  0.19880000  0.78150000  1.0
  C  C197  1  0.27860000  0.19690000  0.84210000  1.0
  C  C198  1  0.28470000  0.21190000  0.03280000  1.0
  C  C199  1  0.28600000  0.21040000  0.97200000  1.0
  C  C200  1  0.71640000  0.21070000  0.78980000  1.0
  C  C201  1  0.71550000  0.20860000  0.85060000  1.0
  C  C202  1  0.71290000  0.22070000  0.04110000  1.0
  C  C203  1  0.71170000  0.21930000  0.98010000  1.0
  C  C204  1  0.77740000  0.80120000  0.71850000  1.0
  C  C205  1  0.77860000  0.80310000  0.65790000  1.0
  C  C206  1  0.78470000  0.78810000  0.46720000  1.0
  C  C207  1  0.78600000  0.78960000  0.52800000  1.0
  C  C208  1  0.21640000  0.78930000  0.71020000  1.0
  C  C209  1  0.21550000  0.79140000  0.64940000  1.0
  C  C210  1  0.21290000  0.77930000  0.45890000  1.0
  C  C211  1  0.21170000  0.78070000  0.51990000  1.0
  C  C212  1  0.72260000  0.69880000  0.71850000  1.0
  C  C213  1  0.72140000  0.69690000  0.65790000  1.0
  C  C214  1  0.71530000  0.71190000  0.46720000  1.0
  C  C215  1  0.71400000  0.71040000  0.52800000  1.0
  C  C216  1  0.28360000  0.71070000  0.71020000  1.0
  C  C217  1  0.28450000  0.70860000  0.64940000  1.0
  C  C218  1  0.28710000  0.72070000  0.45890000  1.0
  C  C219  1  0.28830000  0.71930000  0.51990000  1.0
  C  C220  1  0.75000000  0.75000000  0.12560000  1.0
  C  C221  1  0.75000000  0.75000000  0.06000000  1.0
  C  C222  1  0.25000000  0.25000000  0.37440000  1.0
  C  C223  1  0.25000000  0.25000000  0.44000000  1.0
  C  C224  1  0.25000000  0.25000000  0.87440000  1.0
  C  C225  1  0.25000000  0.25000000  0.94000000  1.0
  C  C226  1  0.75000000  0.75000000  0.62560000  1.0
  C  C227  1  0.75000000  0.75000000  0.56000000  1.0
  C  C228  1  0.25000000  0.75000000  0.11730000  1.0
  C  C229  1  0.25000000  0.75000000  0.05110000  1.0
  C  C230  1  0.75000000  0.25000000  0.38270000  1.0
  C  C231  1  0.75000000  0.25000000  0.44890000  1.0
  C  C232  1  0.75000000  0.25000000  0.88270000  1.0
  C  C233  1  0.75000000  0.25000000  0.94890000  1.0
  C  C234  1  0.25000000  0.75000000  0.61730000  1.0
  C  C235  1  0.25000000  0.75000000  0.55110000  1.0
  N  N236  1  0.75000000  0.75000000  0.24920000  1.0
  N  N237  1  0.75000000  0.75000000  0.93630000  1.0
  N  N238  1  0.25000000  0.25000000  0.25080000  1.0
  N  N239  1  0.25000000  0.25000000  0.56370000  1.0
  N  N240  1  0.25000000  0.25000000  0.75080000  1.0
  N  N241  1  0.25000000  0.25000000  0.06370000  1.0
  N  N242  1  0.75000000  0.75000000  0.74920000  1.0
  N  N243  1  0.75000000  0.75000000  0.43630000  1.0
  N  N244  1  0.25000000  0.75000000  0.24090000  1.0
  N  N245  1  0.25000000  0.75000000  0.92840000  1.0
  N  N246  1  0.75000000  0.25000000  0.25910000  1.0
  N  N247  1  0.75000000  0.25000000  0.57160000  1.0
  N  N248  1  0.75000000  0.25000000  0.75910000  1.0
  N  N249  1  0.75000000  0.25000000  0.07160000  1.0
  N  N250  1  0.25000000  0.75000000  0.74090000  1.0
  N  N251  1  0.25000000  0.75000000  0.42840000  1.0
  O  O252  1  0.82337000  0.72990000  0.34061000  1.0
  O  O253  1  0.90436000  0.74510000  0.38777000  1.0
  O  O254  1  0.85739000  0.87280000  0.35515000  1.0
  O  O255  1  0.89435000  0.78160000  0.28100000  1.0
  O  O256  1  0.17809000  0.74430000  0.33203000  1.0
  O  O257  1  0.09782000  0.75810000  0.37850000  1.0
  O  O258  1  0.14546000  0.88760000  0.35083000  1.0
  O  O259  1  0.10968000  0.79780000  0.27210000  1.0
  O  O260  1  0.98172000  0.27760000  0.25500000  1.0
  O  O261  1  0.03997000  0.16670000  0.29031000  1.0
  O  O262  1  0.94793000  0.14710000  0.29228000  1.0
  O  O263  1  0.99319000  0.14510000  0.19820000  1.0
  O  O264  1  0.99728000  0.02710000  0.34587000  1.0
  O  O265  1  0.04487000  0.89810000  0.36576000  1.0
  O  O266  1  0.95455000  0.89410000  0.37189000  1.0
  O  O267  1  0.99401000  0.91610000  0.27288000  1.0
  O  O268  1  0.10162000  0.88780000  0.45955000  1.0
  O  O269  1  0.00175000  0.87420000  0.47645000  1.0
  O  O270  1  0.00238000  0.73960000  0.39201000  1.0
  O  O271  1  0.94109000  0.03110000  0.44399000  1.0
  O  O272  1  0.99584000  0.16680000  0.40041000  1.0
  O  O273  1  0.89631000  0.02300000  0.32862000  1.0
  O  O274  1  0.05746000  0.03880000  0.43956000  1.0
  O  O275  1  0.09753000  0.03530000  0.32231000  1.0
  O  O276  1  0.90150000  0.87570000  0.46659000  1.0
  O  O277  1  0.67663000  0.77010000  0.34061000  1.0
  O  O278  1  0.59564000  0.75490000  0.38777000  1.0
  O  O279  1  0.64261000  0.62720000  0.35515000  1.0
  O  O280  1  0.60565000  0.71840000  0.28100000  1.0
  O  O281  1  0.32191000  0.75570000  0.33203000  1.0
  O  O282  1  0.40218000  0.74190000  0.37850000  1.0
  O  O283  1  0.35454000  0.61240000  0.35083000  1.0
  O  O284  1  0.39032000  0.70220000  0.27210000  1.0
  O  O285  1  0.51828000  0.22240000  0.25500000  1.0
  O  O286  1  0.46003000  0.33333333  0.29031000  1.0
  O  O287  1  0.55207000  0.35290000  0.29228000  1.0
  O  O288  1  0.50681000  0.35490000  0.19820000  1.0
  O  O289  1  0.50272000  0.47290000  0.34587000  1.0
  O  O290  1  0.45513000  0.60190000  0.36576000  1.0
  O  O291  1  0.54545000  0.60590000  0.37189000  1.0
  O  O292  1  0.50599000  0.58390000  0.27288000  1.0
  O  O293  1  0.39838000  0.61220000  0.45955000  1.0
  O  O294  1  0.49825000  0.62580000  0.47645000  1.0
  O  O295  1  0.49762000  0.76040000  0.39201000  1.0
  O  O296  1  0.55891000  0.46890000  0.44399000  1.0
  O  O297  1  0.50416000  0.33320000  0.40041000  1.0
  O  O298  1  0.60369000  0.47700000  0.32862000  1.0
  O  O299  1  0.44254000  0.46120000  0.43956000  1.0
  O  O300  1  0.40247000  0.46470000  0.32231000  1.0
  O  O301  1  0.59850000  0.62430000  0.46659000  1.0
  O  O302  1  0.17663000  0.22990000  0.15939000  1.0
  O  O303  1  0.09564000  0.24510000  0.11223000  1.0
  O  O304  1  0.14261000  0.37280000  0.14485000  1.0
  O  O305  1  0.10565000  0.28160000  0.21900000  1.0
  O  O306  1  0.82191000  0.24430000  0.16797000  1.0
  O  O307  1  0.90218000  0.25810000  0.12150000  1.0
  O  O308  1  0.85454000  0.38760000  0.14917000  1.0
  O  O309  1  0.89032000  0.29780000  0.22790000  1.0
  O  O310  1  0.01828000  0.77760000  0.24500000  1.0
  O  O311  1  0.96003000  0.66666667  0.20969000  1.0
  O  O312  1  0.05207000  0.64710000  0.20772000  1.0
  O  O313  1  0.00681000  0.64510000  0.30180000  1.0
  O  O314  1  0.00272000  0.52710000  0.15413000  1.0
  O  O315  1  0.95513000  0.39810000  0.13424000  1.0
  O  O316  1  0.04545000  0.39410000  0.12811000  1.0
  O  O317  1  0.00599000  0.41610000  0.22712000  1.0
  O  O318  1  0.89838000  0.38780000  0.04045000  1.0
  O  O319  1  0.99825000  0.37420000  0.02355000  1.0
  O  O320  1  0.99762000  0.23960000  0.10799000  1.0
  O  O321  1  0.05891000  0.53110000  0.05601000  1.0
  O  O322  1  0.00416000  0.66680000  0.09959000  1.0
  O  O323  1  0.10369000  0.52300000  0.17138000  1.0
  O  O324  1  0.94254000  0.53880000  0.06044000  1.0
  O  O325  1  0.90247000  0.53530000  0.17769000  1.0
  O  O326  1  0.09850000  0.37570000  0.03341000  1.0
  O  O327  1  0.32337000  0.27010000  0.15939000  1.0
  O  O328  1  0.40436000  0.25490000  0.11223000  1.0
  O  O329  1  0.35739000  0.12720000  0.14485000  1.0
  O  O330  1  0.39435000  0.21840000  0.21900000  1.0
  O  O331  1  0.67809000  0.25570000  0.16797000  1.0
  O  O332  1  0.59782000  0.24190000  0.12150000  1.0
  O  O333  1  0.64546000  0.11240000  0.14917000  1.0
  O  O334  1  0.60968000  0.20220000  0.22790000  1.0
  O  O335  1  0.48172000  0.72240000  0.24500000  1.0
  O  O336  1  0.53997000  0.83330000  0.20969000  1.0
  O  O337  1  0.44793000  0.85290000  0.20772000  1.0
  O  O338  1  0.49319000  0.85490000  0.30180000  1.0
  O  O339  1  0.49728000  0.97290000  0.15413000  1.0
  O  O340  1  0.54487000  0.10190000  0.13424000  1.0
  O  O341  1  0.45455000  0.10590000  0.12811000  1.0
  O  O342  1  0.49401000  0.08390000  0.22712000  1.0
  O  O343  1  0.60162000  0.11220000  0.04045000  1.0
  O  O344  1  0.50175000  0.12580000  0.02355000  1.0
  O  O345  1  0.50238000  0.26040000  0.10799000  1.0
  O  O346  1  0.44109000  0.96890000  0.05601000  1.0
  O  O347  1  0.49584000  0.83320000  0.09959000  1.0
  O  O348  1  0.39631000  0.97700000  0.17138000  1.0
  O  O349  1  0.55746000  0.96120000  0.06044000  1.0
  O  O350  1  0.59753000  0.96470000  0.17769000  1.0
  O  O351  1  0.40150000  0.12430000  0.03341000  1.0
  O  O352  1  0.17663000  0.27010000  0.65939000  1.0
  O  O353  1  0.09564000  0.25490000  0.61223000  1.0
  O  O354  1  0.14261000  0.12720000  0.64485000  1.0
  O  O355  1  0.10565000  0.21840000  0.71900000  1.0
  O  O356  1  0.82191000  0.25570000  0.66797000  1.0
  O  O357  1  0.90218000  0.24190000  0.62150000  1.0
  O  O358  1  0.85454000  0.11240000  0.64917000  1.0
  O  O359  1  0.89032000  0.20220000  0.72790000  1.0
  O  O360  1  0.01828000  0.72240000  0.74500000  1.0
  O  O361  1  0.96003000  0.83330000  0.70969000  1.0
  O  O362  1  0.05207000  0.85290000  0.70772000  1.0
  O  O363  1  0.00681000  0.85490000  0.80180000  1.0
  O  O364  1  0.00272000  0.97290000  0.65413000  1.0
  O  O365  1  0.95513000  0.10190000  0.63424000  1.0
  O  O366  1  0.04545000  0.10590000  0.62811000  1.0
  O  O367  1  0.00599000  0.08390000  0.72712000  1.0
  O  O368  1  0.89838000  0.11220000  0.54045000  1.0
  O  O369  1  0.99825000  0.12580000  0.52355000  1.0
  O  O370  1  0.99762000  0.26040000  0.60799000  1.0
  O  O371  1  0.05891000  0.96890000  0.55601000  1.0
  O  O372  1  0.00416000  0.83320000  0.59959000  1.0
  O  O373  1  0.10369000  0.97700000  0.67138000  1.0
  O  O374  1  0.94254000  0.96120000  0.56044000  1.0
  O  O375  1  0.90247000  0.96470000  0.67769000  1.0
  O  O376  1  0.09850000  0.12430000  0.53341000  1.0
  O  O377  1  0.32337000  0.22990000  0.65939000  1.0
  O  O378  1  0.40436000  0.24510000  0.61223000  1.0
  O  O379  1  0.35739000  0.37280000  0.64485000  1.0
  O  O380  1  0.39435000  0.28160000  0.71900000  1.0
  O  O381  1  0.67809000  0.24430000  0.66797000  1.0
  O  O382  1  0.59782000  0.25810000  0.62150000  1.0
  O  O383  1  0.64546000  0.38760000  0.64917000  1.0
  O  O384  1  0.60968000  0.29780000  0.72790000  1.0
  O  O385  1  0.48172000  0.77760000  0.74500000  1.0
  O  O386  1  0.53997000  0.66666667  0.70969000  1.0
  O  O387  1  0.44793000  0.64710000  0.70772000  1.0
  O  O388  1  0.49319000  0.64510000  0.80180000  1.0
  O  O389  1  0.49728000  0.52710000  0.65413000  1.0
  O  O390  1  0.54487000  0.39810000  0.63424000  1.0
  O  O391  1  0.45455000  0.39410000  0.62811000  1.0
  O  O392  1  0.49401000  0.41610000  0.72712000  1.0
  O  O393  1  0.60162000  0.38780000  0.54045000  1.0
  O  O394  1  0.50175000  0.37420000  0.52355000  1.0
  O  O395  1  0.50238000  0.23960000  0.60799000  1.0
  O  O396  1  0.44109000  0.53110000  0.55601000  1.0
  O  O397  1  0.49584000  0.66680000  0.59959000  1.0
  O  O398  1  0.39631000  0.52300000  0.67138000  1.0
  O  O399  1  0.55746000  0.53880000  0.56044000  1.0
  O  O400  1  0.59753000  0.53530000  0.67769000  1.0
  O  O401  1  0.40150000  0.37570000  0.53341000  1.0
  O  O402  1  0.82337000  0.77010000  0.84061000  1.0
  O  O403  1  0.90436000  0.75490000  0.88777000  1.0
  O  O404  1  0.85739000  0.62720000  0.85515000  1.0
  O  O405  1  0.89435000  0.71840000  0.78100000  1.0
  O  O406  1  0.17809000  0.75570000  0.83203000  1.0
  O  O407  1  0.09782000  0.74190000  0.87850000  1.0
  O  O408  1  0.14546000  0.61240000  0.85083000  1.0
  O  O409  1  0.10968000  0.70220000  0.77210000  1.0
  O  O410  1  0.98172000  0.22240000  0.75500000  1.0
  O  O411  1  0.03997000  0.33333333  0.79031000  1.0
  O  O412  1  0.94793000  0.35290000  0.79228000  1.0
  O  O413  1  0.99319000  0.35490000  0.69820000  1.0
  O  O414  1  0.99728000  0.47290000  0.84587000  1.0
  O  O415  1  0.04487000  0.60190000  0.86576000  1.0
  O  O416  1  0.95455000  0.60590000  0.87189000  1.0
  O  O417  1  0.99401000  0.58390000  0.77288000  1.0
  O  O418  1  0.10162000  0.61220000  0.95955000  1.0
  O  O419  1  0.00175000  0.62580000  0.97645000  1.0
  O  O420  1  0.00238000  0.76040000  0.89201000  1.0
  O  O421  1  0.94109000  0.46890000  0.94399000  1.0
  O  O422  1  0.99584000  0.33320000  0.90041000  1.0
  O  O423  1  0.89631000  0.47700000  0.82862000  1.0
  O  O424  1  0.05746000  0.46120000  0.93956000  1.0
  O  O425  1  0.09753000  0.46470000  0.82231000  1.0
  O  O426  1  0.90150000  0.62430000  0.96659000  1.0
  O  O427  1  0.67663000  0.72990000  0.84061000  1.0
  O  O428  1  0.59564000  0.74510000  0.88777000  1.0
  O  O429  1  0.64261000  0.87280000  0.85515000  1.0
  O  O430  1  0.60565000  0.78160000  0.78100000  1.0
  O  O431  1  0.32191000  0.74430000  0.83203000  1.0
  O  O432  1  0.40218000  0.75810000  0.87850000  1.0
  O  O433  1  0.35454000  0.88760000  0.85083000  1.0
  O  O434  1  0.39032000  0.79780000  0.77210000  1.0
  O  O435  1  0.51828000  0.27760000  0.75500000  1.0
  O  O436  1  0.46003000  0.16670000  0.79031000  1.0
  O  O437  1  0.55207000  0.14710000  0.79228000  1.0
  O  O438  1  0.50681000  0.14510000  0.69820000  1.0
  O  O439  1  0.50272000  0.02710000  0.84587000  1.0
  O  O440  1  0.45513000  0.89810000  0.86576000  1.0
  O  O441  1  0.54545000  0.89410000  0.87189000  1.0
  O  O442  1  0.50599000  0.91610000  0.77288000  1.0
  O  O443  1  0.39838000  0.88780000  0.95955000  1.0
  O  O444  1  0.49825000  0.87420000  0.97645000  1.0
  O  O445  1  0.49762000  0.73960000  0.89201000  1.0
  O  O446  1  0.55891000  0.03110000  0.94399000  1.0
  O  O447  1  0.50416000  0.16680000  0.90041000  1.0
  O  O448  1  0.60369000  0.02300000  0.82862000  1.0
  O  O449  1  0.44254000  0.03880000  0.93956000  1.0
  O  O450  1  0.40247000  0.03530000  0.82231000  1.0
  O  O451  1  0.59850000  0.87570000  0.96659000  1.0
