# generated using pymatgen
data_MnH2(CO2)2
_symmetry_space_group_name_H-M   'P 1'
_cell_length_a   10.16500000
_cell_length_b   11.62400000
_cell_length_c   14.73800000
_cell_angle_alpha   91.40200000
_cell_angle_beta   90.00000000
_cell_angle_gamma   90.00000000
_symmetry_Int_Tables_number   1
_chemical_formula_structural   MnH2(CO2)2
_chemical_formula_sum   'Mn12 H24 C24 O48'
_cell_volume   1740.89069899
_cell_formula_units_Z   12
loop_
 _symmetry_equiv_pos_site_id
 _symmetry_equiv_pos_as_xyz
  1  'x, y, z'
loop_
 _atom_site_type_symbol
 _atom_site_label
 _atom_site_symmetry_multiplicity
 _atom_site_fract_x
 _atom_site_fract_y
 _atom_site_fract_z
 _atom_site_occupancy
  Mn  Mn0  1  0.91451000  0.74394000  0.86828000  1.0
  Mn  Mn1  1  0.09925000  0.76155000  0.68359000  1.0
  Mn  Mn2  1  0.41451000  0.75606000  0.63172000  1.0
  Mn  Mn3  1  0.59925000  0.73845000  0.81641000  1.0
  Mn  Mn4  1  0.08549000  0.25606000  0.13172000  1.0
  Mn  Mn5  1  0.90075000  0.23845000  0.31641000  1.0
  Mn  Mn6  1  0.58549000  0.24394000  0.36828000  1.0
  Mn  Mn7  1  0.40075000  0.26155000  0.18359000  1.0
  Mn  Mn8  1  0.00000000  0.00000000  0.00000000  1.0
  Mn  Mn9  1  0.50000000  0.50000000  0.50000000  1.0
  Mn  Mn10  1  0.00000000  0.50000000  0.00000000  1.0
  Mn  Mn11  1  0.50000000  0.00000000  0.50000000  1.0
  H  H12  1  0.02240000  0.02390000  0.73250000  1.0
  H  H13  1  0.61750000  0.94370000  0.96200000  1.0
  H  H14  1  0.74790000  0.63660000  0.63350000  1.0
  H  H15  1  0.70230000  0.50770000  0.99420000  1.0
  H  H16  1  0.17850000  0.51980000  0.76210000  1.0
  H  H17  1  0.16020000  0.80030000  0.06980000  1.0
  H  H18  1  0.52240000  0.47610000  0.76750000  1.0
  H  H19  1  0.11750000  0.55630000  0.53800000  1.0
  H  H20  1  0.24790000  0.86340000  0.86650000  1.0
  H  H21  1  0.20230000  0.99230000  0.50580000  1.0
  H  H22  1  0.67850000  0.98020000  0.73790000  1.0
  H  H23  1  0.66020000  0.69970000  0.43020000  1.0
  H  H24  1  0.97760000  0.97610000  0.26750000  1.0
  H  H25  1  0.38250000  0.05630000  0.03800000  1.0
  H  H26  1  0.25210000  0.36340000  0.36650000  1.0
  H  H27  1  0.29770000  0.49230000  0.00580000  1.0
  H  H28  1  0.82150000  0.48020000  0.23790000  1.0
  H  H29  1  0.83980000  0.19970000  0.93020000  1.0
  H  H30  1  0.47760000  0.52390000  0.23250000  1.0
  H  H31  1  0.88250000  0.44370000  0.46200000  1.0
  H  H32  1  0.75210000  0.13660000  0.13350000  1.0
  H  H33  1  0.79770000  0.00770000  0.49420000  1.0
  H  H34  1  0.32150000  0.01980000  0.26210000  1.0
  H  H35  1  0.33980000  0.30030000  0.56980000  1.0
  C  C36  1  0.00560000  0.98309000  0.78634000  1.0
  C  C37  1  0.70797000  0.92594000  0.95334000  1.0
  C  C38  1  0.81668000  0.66939000  0.66928000  1.0
  C  C39  1  0.71762000  0.56808000  0.95320000  1.0
  C  C40  1  0.12014000  0.54638000  0.80847000  1.0
  C  C41  1  0.10503000  0.75744000  0.02940000  1.0
  C  C42  1  0.50560000  0.51691000  0.71366000  1.0
  C  C43  1  0.20797000  0.57406000  0.54666000  1.0
  C  C44  1  0.31668000  0.83061000  0.83072000  1.0
  C  C45  1  0.21762000  0.93192000  0.54680000  1.0
  C  C46  1  0.62014000  0.95362000  0.69153000  1.0
  C  C47  1  0.60503000  0.74256000  0.47060000  1.0
  C  C48  1  0.99440000  0.01691000  0.21366000  1.0
  C  C49  1  0.29203000  0.07406000  0.04666000  1.0
  C  C50  1  0.18332000  0.33061000  0.33072000  1.0
  C  C51  1  0.28238000  0.43192000  0.04680000  1.0
  C  C52  1  0.87986000  0.45362000  0.19153000  1.0
  C  C53  1  0.89497000  0.24256000  0.97060000  1.0
  C  C54  1  0.49440000  0.48309000  0.28634000  1.0
  C  C55  1  0.79203000  0.42594000  0.45334000  1.0
  C  C56  1  0.68332000  0.16939000  0.16928000  1.0
  C  C57  1  0.78238000  0.06808000  0.45320000  1.0
  C  C58  1  0.37986000  0.04638000  0.30847000  1.0
  C  C59  1  0.39497000  0.25744000  0.52940000  1.0
  O  O60  1  0.99823000  0.87383000  0.77908000  1.0
  O  O61  1  0.73600000  0.84684000  0.89442000  1.0
  O  O62  1  0.79133000  0.69108000  0.75264000  1.0
  O  O63  1  0.83673000  0.60053000  0.94275000  1.0
  O  O64  1  0.07444000  0.64788000  0.80131000  1.0
  O  O65  1  0.02826000  0.81430000  0.97809000  1.0
  O  O66  1  0.99272000  0.04033000  0.85731000  1.0
  O  O67  1  0.78838000  0.98127000  0.99991000  1.0
  O  O68  1  0.61992000  0.60871000  0.91429000  1.0
  O  O69  1  0.09571000  0.47911000  0.87011000  1.0
  O  O70  1  0.11317000  0.65189000  0.03067000  1.0
  O  O71  1  0.92325000  0.68718000  0.63019000  1.0
  O  O72  1  0.49823000  0.62617000  0.72092000  1.0
  O  O73  1  0.23600000  0.65316000  0.60558000  1.0
  O  O74  1  0.29133000  0.80892000  0.74736000  1.0
  O  O75  1  0.33673000  0.89947000  0.55725000  1.0
  O  O76  1  0.57444000  0.85212000  0.69869000  1.0
  O  O77  1  0.52826000  0.68570000  0.52191000  1.0
  O  O78  1  0.49272000  0.45967000  0.64269000  1.0
  O  O79  1  0.28838000  0.51873000  0.50009000  1.0
  O  O80  1  0.11992000  0.89129000  0.58571000  1.0
  O  O81  1  0.59571000  0.02089000  0.62989000  1.0
  O  O82  1  0.61317000  0.84811000  0.46933000  1.0
  O  O83  1  0.42325000  0.81282000  0.86981000  1.0
  O  O84  1  0.00177000  0.12617000  0.22092000  1.0
  O  O85  1  0.26400000  0.15316000  0.10558000  1.0
  O  O86  1  0.20867000  0.30892000  0.24736000  1.0
  O  O87  1  0.16327000  0.39947000  0.05725000  1.0
  O  O88  1  0.92556000  0.35212000  0.19869000  1.0
  O  O89  1  0.97174000  0.18570000  0.02191000  1.0
  O  O90  1  0.00728000  0.95967000  0.14269000  1.0
  O  O91  1  0.21162000  0.01873000  0.00009000  1.0
  O  O92  1  0.38008000  0.39129000  0.08571000  1.0
  O  O93  1  0.90429000  0.52089000  0.12989000  1.0
  O  O94  1  0.88683000  0.34811000  0.96933000  1.0
  O  O95  1  0.07675000  0.31282000  0.36981000  1.0
  O  O96  1  0.50177000  0.37383000  0.27908000  1.0
  O  O97  1  0.76400000  0.34684000  0.39442000  1.0
  O  O98  1  0.70867000  0.19108000  0.25264000  1.0
  O  O99  1  0.66327000  0.10053000  0.44275000  1.0
  O  O100  1  0.42556000  0.14788000  0.30131000  1.0
  O  O101  1  0.47174000  0.31430000  0.47809000  1.0
  O  O102  1  0.50728000  0.54033000  0.35731000  1.0
  O  O103  1  0.71162000  0.48127000  0.49991000  1.0
  O  O104  1  0.88008000  0.10871000  0.41429000  1.0
  O  O105  1  0.40429000  0.97911000  0.37011000  1.0
  O  O106  1  0.38683000  0.15189000  0.53067000  1.0
  O  O107  1  0.57675000  0.18718000  0.13019000  1.0
