# generated using pymatgen
data_Zn2H9C19N7O6
_symmetry_space_group_name_H-M   'P 1'
_cell_length_a   10.81400000
_cell_length_b   10.81400000
_cell_length_c   25.41000000
_cell_angle_alpha   90.00000000
_cell_angle_beta   90.00000000
_cell_angle_gamma   90.00000000
_symmetry_Int_Tables_number   1
_chemical_formula_structural   Zn2H9C19N7O6
_chemical_formula_sum   'Zn8 H36 C76 N28 O24'
_cell_volume   2971.51136436
_cell_formula_units_Z   4
loop_
 _symmetry_equiv_pos_site_id
 _symmetry_equiv_pos_as_xyz
  1  'x, y, z'
loop_
 _atom_site_type_symbol
 _atom_site_label
 _atom_site_symmetry_multiplicity
 _atom_site_fract_x
 _atom_site_fract_y
 _atom_site_fract_z
 _atom_site_occupancy
  Zn  Zn0  1  0.45659000  0.45906000  0.92075000  1.0
  Zn  Zn1  1  0.54341000  0.54094000  0.42075000  1.0
  Zn  Zn2  1  0.04094000  0.95659000  0.17075000  1.0
  Zn  Zn3  1  0.95906000  0.04341000  0.67075000  1.0
  Zn  Zn4  1  0.04341000  0.95906000  0.32925000  1.0
  Zn  Zn5  1  0.95659000  0.04094000  0.82925000  1.0
  Zn  Zn6  1  0.45906000  0.45659000  0.07925000  1.0
  Zn  Zn7  1  0.54094000  0.54341000  0.57925000  1.0
  H  H8  1  0.33200000  0.31600000  0.79170000  1.0
  H  H9  1  0.16140000  0.20030000  0.76970000  1.0
  H  H10  1  0.09340000  0.14470000  0.91830000  1.0
  H  H11  1  0.69580000  0.73690000  0.92210000  1.0
  H  H12  1  0.66800000  0.68400000  0.29170000  1.0
  H  H13  1  0.83860000  0.79970000  0.26970000  1.0
  H  H14  1  0.90660000  0.85530000  0.41830000  1.0
  H  H15  1  0.30420000  0.26310000  0.42210000  1.0
  H  H16  1  0.18400000  0.83200000  0.04170000  1.0
  H  H17  1  0.29970000  0.66140000  0.01970000  1.0
  H  H18  1  0.35530000  0.59340000  0.16830000  1.0
  H  H19  1  0.76310000  0.19580000  0.17210000  1.0
  H  H20  1  0.81600000  0.16800000  0.54170000  1.0
  H  H21  1  0.70030000  0.33860000  0.51970000  1.0
  H  H22  1  0.64470000  0.40660000  0.66830000  1.0
  H  H23  1  0.23690000  0.80420000  0.67210000  1.0
  H  H24  1  0.16800000  0.81600000  0.45830000  1.0
  H  H25  1  0.33860000  0.70030000  0.48030000  1.0
  H  H26  1  0.40660000  0.64470000  0.33170000  1.0
  H  H27  1  0.80420000  0.23690000  0.32790000  1.0
  H  H28  1  0.83200000  0.18400000  0.95830000  1.0
  H  H29  1  0.66140000  0.29970000  0.98030000  1.0
  H  H30  1  0.59340000  0.35530000  0.83170000  1.0
  H  H31  1  0.19580000  0.76310000  0.82790000  1.0
  H  H32  1  0.31600000  0.33200000  0.20830000  1.0
  H  H33  1  0.20030000  0.16140000  0.23030000  1.0
  H  H34  1  0.14470000  0.09340000  0.08170000  1.0
  H  H35  1  0.73690000  0.69580000  0.07790000  1.0
  H  H36  1  0.68400000  0.66800000  0.70830000  1.0
  H  H37  1  0.79970000  0.83860000  0.73030000  1.0
  H  H38  1  0.85530000  0.90660000  0.58170000  1.0
  H  H39  1  0.26310000  0.30420000  0.57790000  1.0
  H  H40  1  0.94400000  0.94400000  0.00000000  1.0
  H  H41  1  0.05600000  0.05600000  0.50000000  1.0
  H  H42  1  0.55600000  0.44400000  0.25000000  1.0
  H  H43  1  0.44400000  0.55600000  0.75000000  1.0
  C  C44  1  0.28290000  0.28340000  0.81837000  1.0
  C  C45  1  0.18120000  0.21120000  0.80501000  1.0
  C  C46  1  0.14090000  0.17940000  0.89160000  1.0
  C  C47  1  0.24160000  0.25340000  0.90466000  1.0
  C  C48  1  0.27180000  0.27760000  0.95934000  1.0
  C  C49  1  0.73520000  0.75860000  0.95331000  1.0
  C  C50  1  0.82730000  0.84800000  0.95293000  1.0
  C  C51  1  0.86640000  0.90780000  0.90232000  1.0
  C  C52  1  0.71710000  0.71660000  0.31837000  1.0
  C  C53  1  0.81880000  0.78880000  0.30501000  1.0
  C  C54  1  0.85910000  0.82060000  0.39160000  1.0
  C  C55  1  0.75840000  0.74660000  0.40466000  1.0
  C  C56  1  0.72820000  0.72240000  0.45934000  1.0
  C  C57  1  0.26480000  0.24140000  0.45331000  1.0
  C  C58  1  0.17270000  0.15200000  0.45293000  1.0
  C  C59  1  0.13360000  0.09220000  0.40232000  1.0
  C  C60  1  0.21660000  0.78290000  0.06837000  1.0
  C  C61  1  0.28880000  0.68120000  0.05501000  1.0
  C  C62  1  0.32060000  0.64090000  0.14160000  1.0
  C  C63  1  0.24660000  0.74160000  0.15466000  1.0
  C  C64  1  0.22240000  0.77180000  0.20934000  1.0
  C  C65  1  0.74140000  0.23520000  0.20331000  1.0
  C  C66  1  0.65200000  0.32730000  0.20293000  1.0
  C  C67  1  0.59220000  0.36640000  0.15232000  1.0
  C  C68  1  0.78340000  0.21710000  0.56837000  1.0
  C  C69  1  0.71120000  0.31880000  0.55501000  1.0
  C  C70  1  0.67940000  0.35910000  0.64160000  1.0
  C  C71  1  0.75340000  0.25840000  0.65466000  1.0
  C  C72  1  0.77760000  0.22820000  0.70934000  1.0
  C  C73  1  0.25860000  0.76480000  0.70331000  1.0
  C  C74  1  0.34800000  0.67270000  0.70293000  1.0
  C  C75  1  0.40780000  0.63360000  0.65232000  1.0
  C  C76  1  0.21710000  0.78340000  0.43163000  1.0
  C  C77  1  0.31880000  0.71120000  0.44499000  1.0
  C  C78  1  0.35910000  0.67940000  0.35840000  1.0
  C  C79  1  0.25840000  0.75340000  0.34534000  1.0
  C  C80  1  0.22820000  0.77760000  0.29066000  1.0
  C  C81  1  0.76480000  0.25860000  0.29669000  1.0
  C  C82  1  0.67270000  0.34800000  0.29707000  1.0
  C  C83  1  0.63360000  0.40780000  0.34768000  1.0
  C  C84  1  0.78290000  0.21660000  0.93163000  1.0
  C  C85  1  0.68120000  0.28880000  0.94499000  1.0
  C  C86  1  0.64090000  0.32060000  0.85840000  1.0
  C  C87  1  0.74160000  0.24660000  0.84534000  1.0
  C  C88  1  0.77180000  0.22240000  0.79066000  1.0
  C  C89  1  0.23520000  0.74140000  0.79669000  1.0
  C  C90  1  0.32730000  0.65200000  0.79707000  1.0
  C  C91  1  0.36640000  0.59220000  0.84768000  1.0
  C  C92  1  0.28340000  0.28290000  0.18163000  1.0
  C  C93  1  0.21120000  0.18120000  0.19499000  1.0
  C  C94  1  0.17940000  0.14090000  0.10840000  1.0
  C  C95  1  0.25340000  0.24160000  0.09534000  1.0
  C  C96  1  0.27760000  0.27180000  0.04066000  1.0
  C  C97  1  0.75860000  0.73520000  0.04669000  1.0
  C  C98  1  0.84800000  0.82730000  0.04707000  1.0
  C  C99  1  0.90780000  0.86640000  0.09768000  1.0
  C  C100  1  0.71660000  0.71710000  0.68163000  1.0
  C  C101  1  0.78880000  0.81880000  0.69499000  1.0
  C  C102  1  0.82060000  0.85910000  0.60840000  1.0
  C  C103  1  0.74660000  0.75840000  0.59534000  1.0
  C  C104  1  0.72240000  0.72820000  0.54066000  1.0
  C  C105  1  0.24140000  0.26480000  0.54669000  1.0
  C  C106  1  0.15200000  0.17270000  0.54707000  1.0
  C  C107  1  0.09220000  0.13360000  0.59768000  1.0
  C  C108  1  0.60380000  0.60380000  0.00000000  1.0
  C  C109  1  0.70170000  0.70170000  0.00000000  1.0
  C  C110  1  0.88320000  0.88320000  0.00000000  1.0
  C  C111  1  0.39620000  0.39620000  0.50000000  1.0
  C  C112  1  0.29830000  0.29830000  0.50000000  1.0
  C  C113  1  0.11680000  0.11680000  0.50000000  1.0
  C  C114  1  0.89620000  0.10380000  0.25000000  1.0
  C  C115  1  0.79830000  0.20170000  0.25000000  1.0
  C  C116  1  0.61680000  0.38320000  0.25000000  1.0
  C  C117  1  0.10380000  0.89620000  0.75000000  1.0
  C  C118  1  0.20170000  0.79830000  0.75000000  1.0
  C  C119  1  0.38320000  0.61680000  0.75000000  1.0
  N  N120  1  0.11140000  0.15740000  0.84172000  1.0
  N  N121  1  0.31190000  0.30690000  0.86821000  1.0
  N  N122  1  0.35730000  0.36040000  0.97337000  1.0
  N  N123  1  0.88860000  0.84260000  0.34172000  1.0
  N  N124  1  0.68810000  0.69310000  0.36821000  1.0
  N  N125  1  0.64270000  0.63960000  0.47337000  1.0
  N  N126  1  0.34260000  0.61140000  0.09172000  1.0
  N  N127  1  0.19310000  0.81190000  0.11821000  1.0
  N  N128  1  0.13960000  0.85730000  0.22337000  1.0
  N  N129  1  0.65740000  0.38860000  0.59172000  1.0
  N  N130  1  0.80690000  0.18810000  0.61821000  1.0
  N  N131  1  0.86040000  0.14270000  0.72337000  1.0
  N  N132  1  0.38860000  0.65740000  0.40828000  1.0
  N  N133  1  0.18810000  0.80690000  0.38179000  1.0
  N  N134  1  0.14270000  0.86040000  0.27663000  1.0
  N  N135  1  0.61140000  0.34260000  0.90828000  1.0
  N  N136  1  0.81190000  0.19310000  0.88179000  1.0
  N  N137  1  0.85730000  0.13960000  0.77663000  1.0
  N  N138  1  0.15740000  0.11140000  0.15828000  1.0
  N  N139  1  0.30690000  0.31190000  0.13179000  1.0
  N  N140  1  0.36040000  0.35730000  0.02663000  1.0
  N  N141  1  0.84260000  0.88860000  0.65828000  1.0
  N  N142  1  0.69310000  0.68810000  0.63179000  1.0
  N  N143  1  0.63960000  0.64270000  0.52663000  1.0
  N  N144  1  0.21961000  0.21961000  0.00000000  1.0
  N  N145  1  0.78039000  0.78039000  0.50000000  1.0
  N  N146  1  0.28039000  0.71961000  0.25000000  1.0
  N  N147  1  0.71961000  0.28039000  0.75000000  1.0
  O  O148  1  0.53720000  0.59475000  0.95988000  1.0
  O  O149  1  0.80070000  0.90280000  0.86221000  1.0
  O  O150  1  0.96640000  0.96700000  0.90209000  1.0
  O  O151  1  0.46280000  0.40525000  0.45988000  1.0
  O  O152  1  0.19930000  0.09720000  0.36221000  1.0
  O  O153  1  0.03360000  0.03300000  0.40209000  1.0
  O  O154  1  0.90525000  0.03720000  0.20988000  1.0
  O  O155  1  0.59720000  0.30070000  0.11221000  1.0
  O  O156  1  0.53300000  0.46640000  0.15209000  1.0
  O  O157  1  0.09475000  0.96280000  0.70988000  1.0
  O  O158  1  0.40280000  0.69930000  0.61221000  1.0
  O  O159  1  0.46700000  0.53360000  0.65209000  1.0
  O  O160  1  0.96280000  0.09475000  0.29012000  1.0
  O  O161  1  0.69930000  0.40280000  0.38779000  1.0
  O  O162  1  0.53360000  0.46700000  0.34791000  1.0
  O  O163  1  0.03720000  0.90525000  0.79012000  1.0
  O  O164  1  0.30070000  0.59720000  0.88779000  1.0
  O  O165  1  0.46640000  0.53300000  0.84791000  1.0
  O  O166  1  0.59475000  0.53720000  0.04012000  1.0
  O  O167  1  0.90280000  0.80070000  0.13779000  1.0
  O  O168  1  0.96700000  0.96640000  0.09791000  1.0
  O  O169  1  0.40525000  0.46280000  0.54012000  1.0
  O  O170  1  0.09720000  0.19930000  0.63779000  1.0
  O  O171  1  0.03300000  0.03360000  0.59791000  1.0
