# generated using pymatgen
data_Ce2H6C14S(NO6)2
_symmetry_space_group_name_H-M   'P 1'
_cell_length_a   26.21100000
_cell_length_b   13.52950000
_cell_length_c   6.74810000
_cell_angle_alpha   90.00000000
_cell_angle_beta   92.29400000
_cell_angle_gamma   90.00000000
_symmetry_Int_Tables_number   1
_chemical_formula_structural   Ce2H6C14S(NO6)2
_chemical_formula_sum   'Ce8 H24 C56 S4 N8 O48'
_cell_volume   2391.10507198
_cell_formula_units_Z   4
loop_
 _symmetry_equiv_pos_site_id
 _symmetry_equiv_pos_as_xyz
  1  'x, y, z'
loop_
 _atom_site_type_symbol
 _atom_site_label
 _atom_site_symmetry_multiplicity
 _atom_site_fract_x
 _atom_site_fract_y
 _atom_site_fract_z
 _atom_site_occupancy
  Ce  Ce0  1  0.10348000  0.19284000  0.50963000  1.0
  Ce  Ce1  1  0.60348000  0.69284000  0.50963000  1.0
  Ce  Ce2  1  0.89652000  0.19284000  0.99037000  1.0
  Ce  Ce3  1  0.39652000  0.69284000  0.99037000  1.0
  Ce  Ce4  1  0.89652000  0.80716000  0.49037000  1.0
  Ce  Ce5  1  0.39652000  0.30716000  0.49037000  1.0
  Ce  Ce6  1  0.10348000  0.80716000  0.00963000  1.0
  Ce  Ce7  1  0.60348000  0.30716000  0.00963000  1.0
  H  H8  1  0.22610000  0.81740000  0.36540000  1.0
  H  H9  1  0.35750000  0.94930000  0.45060000  1.0
  H  H10  1  0.23020000  0.11330000  0.41140000  1.0
  H  H11  1  0.72610000  0.31740000  0.36540000  1.0
  H  H12  1  0.85750000  0.44930000  0.45060000  1.0
  H  H13  1  0.73020000  0.61330000  0.41140000  1.0
  H  H14  1  0.77390000  0.81740000  0.13460000  1.0
  H  H15  1  0.64250000  0.94930000  0.04940000  1.0
  H  H16  1  0.76980000  0.11330000  0.08860000  1.0
  H  H17  1  0.27390000  0.31740000  0.13460000  1.0
  H  H18  1  0.14250000  0.44930000  0.04940000  1.0
  H  H19  1  0.26980000  0.61330000  0.08860000  1.0
  H  H20  1  0.77390000  0.18260000  0.63460000  1.0
  H  H21  1  0.64250000  0.05070000  0.54940000  1.0
  H  H22  1  0.76980000  0.88670000  0.58860000  1.0
  H  H23  1  0.27390000  0.68260000  0.63460000  1.0
  H  H24  1  0.14250000  0.55070000  0.54940000  1.0
  H  H25  1  0.26980000  0.38670000  0.58860000  1.0
  H  H26  1  0.22610000  0.18260000  0.86540000  1.0
  H  H27  1  0.35750000  0.05070000  0.95060000  1.0
  H  H28  1  0.23020000  0.88670000  0.91140000  1.0
  H  H29  1  0.72610000  0.68260000  0.86540000  1.0
  H  H30  1  0.85750000  0.55070000  0.95060000  1.0
  H  H31  1  0.73020000  0.38670000  0.91140000  1.0
  C  C32  1  0.16117000  0.96420000  0.36240000  1.0
  C  C33  1  0.21857000  0.96490000  0.38710000  1.0
  C  C34  1  0.24475000  0.87540000  0.38460000  1.0
  C  C35  1  0.32221000  0.95320000  0.43320000  1.0
  C  C36  1  0.29941000  0.04640000  0.43380000  1.0
  C  C37  1  0.24661000  0.05240000  0.41090000  1.0
  C  C38  1  0.33233000  0.13720000  0.45720000  1.0
  C  C39  1  0.66117000  0.46420000  0.36240000  1.0
  C  C40  1  0.71857000  0.46490000  0.38710000  1.0
  C  C41  1  0.74475000  0.37540000  0.38460000  1.0
  C  C42  1  0.82221000  0.45320000  0.43320000  1.0
  C  C43  1  0.79941000  0.54640000  0.43380000  1.0
  C  C44  1  0.74661000  0.55240000  0.41090000  1.0
  C  C45  1  0.83233000  0.63720000  0.45720000  1.0
  C  C46  1  0.83883000  0.96420000  0.13760000  1.0
  C  C47  1  0.78143000  0.96490000  0.11290000  1.0
  C  C48  1  0.75525000  0.87540000  0.11540000  1.0
  C  C49  1  0.67779000  0.95320000  0.06680000  1.0
  C  C50  1  0.70059000  0.04640000  0.06620000  1.0
  C  C51  1  0.75339000  0.05240000  0.08910000  1.0
  C  C52  1  0.66767000  0.13720000  0.04280000  1.0
  C  C53  1  0.33883000  0.46420000  0.13760000  1.0
  C  C54  1  0.28143000  0.46490000  0.11290000  1.0
  C  C55  1  0.25525000  0.37540000  0.11540000  1.0
  C  C56  1  0.17779000  0.45320000  0.06680000  1.0
  C  C57  1  0.20059000  0.54640000  0.06620000  1.0
  C  C58  1  0.25339000  0.55240000  0.08910000  1.0
  C  C59  1  0.16767000  0.63720000  0.04280000  1.0
  C  C60  1  0.83883000  0.03580000  0.63760000  1.0
  C  C61  1  0.78143000  0.03510000  0.61290000  1.0
  C  C62  1  0.75525000  0.12460000  0.61540000  1.0
  C  C63  1  0.67779000  0.04680000  0.56680000  1.0
  C  C64  1  0.70059000  0.95360000  0.56620000  1.0
  C  C65  1  0.75339000  0.94760000  0.58910000  1.0
  C  C66  1  0.66767000  0.86280000  0.54280000  1.0
  C  C67  1  0.33883000  0.53580000  0.63760000  1.0
  C  C68  1  0.28143000  0.53510000  0.61290000  1.0
  C  C69  1  0.25525000  0.62460000  0.61540000  1.0
  C  C70  1  0.17779000  0.54680000  0.56680000  1.0
  C  C71  1  0.20059000  0.45360000  0.56620000  1.0
  C  C72  1  0.25339000  0.44760000  0.58910000  1.0
  C  C73  1  0.16767000  0.36280000  0.54280000  1.0
  C  C74  1  0.16117000  0.03580000  0.86240000  1.0
  C  C75  1  0.21857000  0.03510000  0.88710000  1.0
  C  C76  1  0.24475000  0.12460000  0.88460000  1.0
  C  C77  1  0.32221000  0.04680000  0.93320000  1.0
  C  C78  1  0.29941000  0.95360000  0.93380000  1.0
  C  C79  1  0.24661000  0.94760000  0.91090000  1.0
  C  C80  1  0.33233000  0.86280000  0.95720000  1.0
  C  C81  1  0.66117000  0.53580000  0.86240000  1.0
  C  C82  1  0.71857000  0.53510000  0.88710000  1.0
  C  C83  1  0.74475000  0.62460000  0.88460000  1.0
  C  C84  1  0.82221000  0.54680000  0.93320000  1.0
  C  C85  1  0.79941000  0.45360000  0.93380000  1.0
  C  C86  1  0.74661000  0.44760000  0.91090000  1.0
  C  C87  1  0.83233000  0.36280000  0.95720000  1.0
  S  S88  1  0.00000000  0.20065000  0.25000000  1.0
  S  S89  1  0.50000000  0.70065000  0.25000000  1.0
  S  S90  1  0.00000000  0.79935000  0.75000000  1.0
  S  S91  1  0.50000000  0.29935000  0.75000000  1.0
  N  N92  1  0.29573000  0.86900000  0.40880000  1.0
  N  N93  1  0.79573000  0.36900000  0.40880000  1.0
  N  N94  1  0.70427000  0.86900000  0.09120000  1.0
  N  N95  1  0.20427000  0.36900000  0.09120000  1.0
  N  N96  1  0.70427000  0.13100000  0.59120000  1.0
  N  N97  1  0.20427000  0.63100000  0.59120000  1.0
  N  N98  1  0.29573000  0.13100000  0.90880000  1.0
  N  N99  1  0.79573000  0.63100000  0.90880000  1.0
  O  O100  1  0.31348000  0.22089000  0.42510000  1.0
  O  O101  1  0.37924000  0.12650000  0.50870000  1.0
  O  O102  1  0.13721000  0.04084000  0.40180000  1.0
  O  O103  1  0.14023000  0.88475000  0.30450000  1.0
  O  O104  1  0.01627000  0.26100000  0.42280000  1.0
  O  O105  1  0.04463000  0.13920000  0.20700000  1.0
  O  O106  1  0.81348000  0.72089000  0.42510000  1.0
  O  O107  1  0.87924000  0.62650000  0.50870000  1.0
  O  O108  1  0.63721000  0.54084000  0.40180000  1.0
  O  O109  1  0.64023000  0.38475000  0.30450000  1.0
  O  O110  1  0.51627000  0.76100000  0.42280000  1.0
  O  O111  1  0.54463000  0.63920000  0.20700000  1.0
  O  O112  1  0.68652000  0.22089000  0.07490000  1.0
  O  O113  1  0.62076000  0.12650000  0.99130000  1.0
  O  O114  1  0.86279000  0.04084000  0.09820000  1.0
  O  O115  1  0.85977000  0.88475000  0.19550000  1.0
  O  O116  1  0.98373000  0.26100000  0.07720000  1.0
  O  O117  1  0.95537000  0.13920000  0.29300000  1.0
  O  O118  1  0.18652000  0.72089000  0.07490000  1.0
  O  O119  1  0.12076000  0.62650000  0.99130000  1.0
  O  O120  1  0.36279000  0.54084000  0.09820000  1.0
  O  O121  1  0.35977000  0.38475000  0.19550000  1.0
  O  O122  1  0.48373000  0.76100000  0.07720000  1.0
  O  O123  1  0.45537000  0.63920000  0.29300000  1.0
  O  O124  1  0.68652000  0.77911000  0.57490000  1.0
  O  O125  1  0.62076000  0.87350000  0.49130000  1.0
  O  O126  1  0.86279000  0.95916000  0.59820000  1.0
  O  O127  1  0.85977000  0.11525000  0.69550000  1.0
  O  O128  1  0.98373000  0.73900000  0.57720000  1.0
  O  O129  1  0.95537000  0.86080000  0.79300000  1.0
  O  O130  1  0.18652000  0.27911000  0.57490000  1.0
  O  O131  1  0.12076000  0.37350000  0.49130000  1.0
  O  O132  1  0.36279000  0.45916000  0.59820000  1.0
  O  O133  1  0.35977000  0.61525000  0.69550000  1.0
  O  O134  1  0.48373000  0.23900000  0.57720000  1.0
  O  O135  1  0.45537000  0.36080000  0.79300000  1.0
  O  O136  1  0.31348000  0.77911000  0.92510000  1.0
  O  O137  1  0.37924000  0.87350000  0.00870000  1.0
  O  O138  1  0.13721000  0.95916000  0.90180000  1.0
  O  O139  1  0.14023000  0.11525000  0.80450000  1.0
  O  O140  1  0.01627000  0.73900000  0.92280000  1.0
  O  O141  1  0.04463000  0.86080000  0.70700000  1.0
  O  O142  1  0.81348000  0.27911000  0.92510000  1.0
  O  O143  1  0.87924000  0.37350000  0.00870000  1.0
  O  O144  1  0.63721000  0.45916000  0.90180000  1.0
  O  O145  1  0.64023000  0.61525000  0.80450000  1.0
  O  O146  1  0.51627000  0.23900000  0.92280000  1.0
  O  O147  1  0.54463000  0.36080000  0.70700000  1.0
