# generated using pymatgen
data_V6Ni3H56C52(N2O3)4
_symmetry_space_group_name_H-M   'P 1'
_cell_length_a   13.08100000
_cell_length_b   16.37900000
_cell_length_c   15.40700000
_cell_angle_alpha   90.00000000
_cell_angle_beta   102.36800000
_cell_angle_gamma   90.00000000
_symmetry_Int_Tables_number   1
_chemical_formula_structural   V6Ni3H56C52(N2O3)4
_chemical_formula_sum   'V12 Ni6 H112 C104 N16 O24'
_cell_volume   3224.39716367
_cell_formula_units_Z   2
loop_
 _symmetry_equiv_pos_site_id
 _symmetry_equiv_pos_as_xyz
  1  'x, y, z'
loop_
 _atom_site_type_symbol
 _atom_site_label
 _atom_site_symmetry_multiplicity
 _atom_site_fract_x
 _atom_site_fract_y
 _atom_site_fract_z
 _atom_site_occupancy
  V  V0  1  0.34094000  0.33234000  0.35453000  1.0
  V  V1  1  0.27631000  0.65855000  0.25152000  1.0
  V  V2  1  0.21851000  0.50397000  0.37800000  1.0
  V  V3  1  0.15906000  0.83234000  0.14547000  1.0
  V  V4  1  0.22369000  0.15855000  0.24848000  1.0
  V  V5  1  0.28149000  0.00397000  0.12200000  1.0
  V  V6  1  0.65906000  0.66766000  0.64547000  1.0
  V  V7  1  0.72369000  0.34145000  0.74848000  1.0
  V  V8  1  0.78149000  0.49603000  0.62200000  1.0
  V  V9  1  0.84094000  0.16766000  0.85453000  1.0
  V  V10  1  0.77631000  0.84145000  0.75152000  1.0
  V  V11  1  0.71851000  0.99603000  0.87800000  1.0
  Ni  Ni12  1  0.48884000  0.30586000  0.57391000  1.0
  Ni  Ni13  1  0.01116000  0.80586000  0.92609000  1.0
  Ni  Ni14  1  0.51116000  0.69414000  0.42609000  1.0
  Ni  Ni15  1  0.98884000  0.19414000  0.07391000  1.0
  Ni  Ni16  1  0.00000000  0.50000000  0.50000000  1.0
  Ni  Ni17  1  0.50000000  0.00000000  0.00000000  1.0
  H  H18  1  0.45940000  0.08960000  0.81980000  1.0
  H  H19  1  0.49250000  0.32860000  0.77280000  1.0
  H  H20  1  0.88730000  0.66170000  0.83460000  1.0
  H  H21  1  0.14580000  0.28830000  0.65950000  1.0
  H  H22  1  0.11980000  0.21490000  0.43860000  1.0
  H  H23  1  0.90350000  0.52380000  0.81640000  1.0
  H  H24  1  0.91160000  0.35430000  0.58980000  1.0
  H  H25  1  0.27550000  0.95630000  0.92820000  1.0
  H  H26  1  0.32220000  0.13180000  0.71130000  1.0
  H  H27  1  0.03030000  0.08460000  0.46450000  1.0
  H  H28  1  0.96480000  0.08350000  0.53870000  1.0
  H  H29  1  0.13330000  0.99410000  0.82240000  1.0
  H  H30  1  0.37840000  0.33040000  0.86700000  1.0
  H  H31  1  0.11140000  0.35390000  0.43530000  1.0
  H  H32  1  0.05430000  0.06610000  0.69770000  1.0
  H  H33  1  0.10380000  0.15270000  0.69340000  1.0
  H  H34  1  0.13530000  0.02020000  0.58390000  1.0
  H  H35  1  0.18540000  0.10670000  0.57980000  1.0
  H  H36  1  0.14710000  0.66680000  0.01280000  1.0
  H  H37  1  0.16980000  0.52970000  0.99760000  1.0
  H  H38  1  0.91100000  0.21420000  0.59360000  1.0
  H  H39  1  0.20090000  0.29820000  0.89280000  1.0
  H  H40  1  0.10900000  0.28270000  0.81020000  1.0
  H  H41  1  0.26430000  0.28430000  0.57220000  1.0
  H  H42  1  0.19750000  0.43860000  0.85830000  1.0
  H  H43  1  0.10660000  0.42340000  0.77550000  1.0
  H  H44  1  0.99030000  0.39490000  0.86480000  1.0
  H  H45  1  0.08040000  0.39520000  0.95040000  1.0
  H  H46  1  0.04060000  0.58960000  0.68020000  1.0
  H  H47  1  0.00750000  0.82860000  0.72720000  1.0
  H  H48  1  0.61270000  0.16170000  0.66540000  1.0
  H  H49  1  0.35420000  0.78830000  0.84050000  1.0
  H  H50  1  0.38020000  0.71490000  0.06140000  1.0
  H  H51  1  0.59650000  0.02380000  0.68360000  1.0
  H  H52  1  0.58840000  0.85430000  0.91020000  1.0
  H  H53  1  0.22450000  0.45630000  0.57180000  1.0
  H  H54  1  0.17780000  0.63180000  0.78870000  1.0
  H  H55  1  0.46970000  0.58460000  0.03550000  1.0
  H  H56  1  0.53520000  0.58350000  0.96130000  1.0
  H  H57  1  0.36670000  0.49410000  0.67760000  1.0
  H  H58  1  0.12160000  0.83040000  0.63300000  1.0
  H  H59  1  0.38860000  0.85390000  0.06470000  1.0
  H  H60  1  0.44570000  0.56610000  0.80230000  1.0
  H  H61  1  0.39620000  0.65270000  0.80660000  1.0
  H  H62  1  0.36470000  0.52020000  0.91610000  1.0
  H  H63  1  0.31460000  0.60670000  0.92020000  1.0
  H  H64  1  0.35290000  0.16680000  0.48720000  1.0
  H  H65  1  0.33020000  0.02970000  0.50240000  1.0
  H  H66  1  0.58900000  0.71420000  0.90640000  1.0
  H  H67  1  0.29910000  0.79820000  0.60720000  1.0
  H  H68  1  0.39100000  0.78270000  0.68980000  1.0
  H  H69  1  0.23570000  0.78430000  0.92780000  1.0
  H  H70  1  0.30250000  0.93860000  0.64170000  1.0
  H  H71  1  0.39340000  0.92340000  0.72450000  1.0
  H  H72  1  0.50970000  0.89490000  0.63520000  1.0
  H  H73  1  0.41960000  0.89520000  0.54960000  1.0
  H  H74  1  0.54060000  0.91040000  0.18020000  1.0
  H  H75  1  0.50750000  0.67140000  0.22720000  1.0
  H  H76  1  0.11270000  0.33830000  0.16540000  1.0
  H  H77  1  0.85420000  0.71170000  0.34050000  1.0
  H  H78  1  0.88020000  0.78510000  0.56140000  1.0
  H  H79  1  0.09650000  0.47620000  0.18360000  1.0
  H  H80  1  0.08840000  0.64570000  0.41020000  1.0
  H  H81  1  0.72450000  0.04370000  0.07180000  1.0
  H  H82  1  0.67780000  0.86820000  0.28870000  1.0
  H  H83  1  0.96970000  0.91540000  0.53550000  1.0
  H  H84  1  0.03520000  0.91650000  0.46130000  1.0
  H  H85  1  0.86670000  0.00590000  0.17760000  1.0
  H  H86  1  0.62160000  0.66960000  0.13300000  1.0
  H  H87  1  0.88860000  0.64610000  0.56470000  1.0
  H  H88  1  0.94570000  0.93390000  0.30230000  1.0
  H  H89  1  0.89620000  0.84730000  0.30660000  1.0
  H  H90  1  0.86470000  0.97980000  0.41610000  1.0
  H  H91  1  0.81460000  0.89330000  0.42020000  1.0
  H  H92  1  0.85290000  0.33320000  0.98720000  1.0
  H  H93  1  0.83020000  0.47030000  0.00240000  1.0
  H  H94  1  0.08900000  0.78580000  0.40640000  1.0
  H  H95  1  0.79910000  0.70180000  0.10720000  1.0
  H  H96  1  0.89100000  0.71730000  0.18980000  1.0
  H  H97  1  0.73570000  0.71570000  0.42780000  1.0
  H  H98  1  0.80250000  0.56140000  0.14170000  1.0
  H  H99  1  0.89340000  0.57660000  0.22450000  1.0
  H  H100  1  0.00970000  0.60510000  0.13520000  1.0
  H  H101  1  0.91960000  0.60480000  0.04960000  1.0
  H  H102  1  0.95940000  0.41040000  0.31980000  1.0
  H  H103  1  0.99250000  0.17140000  0.27280000  1.0
  H  H104  1  0.38730000  0.83830000  0.33460000  1.0
  H  H105  1  0.64580000  0.21170000  0.15950000  1.0
  H  H106  1  0.61980000  0.28510000  0.93860000  1.0
  H  H107  1  0.40350000  0.97620000  0.31640000  1.0
  H  H108  1  0.41160000  0.14570000  0.08980000  1.0
  H  H109  1  0.77550000  0.54370000  0.42820000  1.0
  H  H110  1  0.82220000  0.36820000  0.21130000  1.0
  H  H111  1  0.53030000  0.41540000  0.96450000  1.0
  H  H112  1  0.46480000  0.41650000  0.03870000  1.0
  H  H113  1  0.63330000  0.50590000  0.32240000  1.0
  H  H114  1  0.87840000  0.16960000  0.36700000  1.0
  H  H115  1  0.61140000  0.14610000  0.93530000  1.0
  H  H116  1  0.55430000  0.43390000  0.19770000  1.0
  H  H117  1  0.60380000  0.34730000  0.19340000  1.0
  H  H118  1  0.63530000  0.47980000  0.08390000  1.0
  H  H119  1  0.68540000  0.39330000  0.07980000  1.0
  H  H120  1  0.64710000  0.83320000  0.51280000  1.0
  H  H121  1  0.66980000  0.97030000  0.49760000  1.0
  H  H122  1  0.41100000  0.28580000  0.09360000  1.0
  H  H123  1  0.70090000  0.20180000  0.39280000  1.0
  H  H124  1  0.60900000  0.21730000  0.31020000  1.0
  H  H125  1  0.76430000  0.21570000  0.07220000  1.0
  H  H126  1  0.69750000  0.06140000  0.35830000  1.0
  H  H127  1  0.60660000  0.07660000  0.27550000  1.0
  H  H128  1  0.49030000  0.10510000  0.36480000  1.0
  H  H129  1  0.58040000  0.10480000  0.45040000  1.0
  C  C130  1  0.39260000  0.07092000  0.82090000  1.0
  C  C131  1  0.01790000  0.19754000  0.51764000  1.0
  C  C132  1  0.24710000  0.30951000  0.77491000  1.0
  C  C133  1  0.42160000  0.31970000  0.74970000  1.0
  C  C134  1  0.94550000  0.63502000  0.86790000  1.0
  C  C135  1  0.21630000  0.29613000  0.68490000  1.0
  C  C136  1  0.07650000  0.24181000  0.46991000  1.0
  C  C137  1  0.95490000  0.55175000  0.85650000  1.0
  C  C138  1  0.95370000  0.32597000  0.55850000  1.0
  C  C139  1  0.28500000  0.99280000  0.88435000  1.0
  C  C140  1  0.20950000  0.06882000  0.75405000  1.0
  C  C141  1  0.31040000  0.09623000  0.75519000  1.0
  C  C142  1  0.02680000  0.10586000  0.52260000  1.0
  C  C143  1  0.19880000  0.01517000  0.82060000  1.0
  C  C144  1  0.35290000  0.32130000  0.80660000  1.0
  C  C145  1  0.07130000  0.32570000  0.46843000  1.0
  C  C146  1  0.11510000  0.09480000  0.68650000  1.0
  C  C147  1  0.12460000  0.07824000  0.59110000  1.0
  C  C148  1  0.09750000  0.63795000  0.97196000  1.0
  C  C149  1  0.03960000  0.51019000  0.90390000  1.0
  C  C150  1  0.11150000  0.55524000  0.96330000  1.0
  C  C151  1  0.95370000  0.24141000  0.56190000  1.0
  C  C152  1  0.16950000  0.31666000  0.83320000  1.0
  C  C153  1  0.28800000  0.29429000  0.63262000  1.0
  C  C154  1  0.13610000  0.40553000  0.83560000  1.0
  C  C155  1  0.05620000  0.42021000  0.89260000  1.0
  C  C156  1  0.10740000  0.57092000  0.67910000  1.0
  C  C157  1  0.48210000  0.69754000  0.98236000  1.0
  C  C158  1  0.25290000  0.80951000  0.72509000  1.0
  C  C159  1  0.07840000  0.81970000  0.75030000  1.0
  C  C160  1  0.55450000  0.13502000  0.63210000  1.0
  C  C161  1  0.28370000  0.79613000  0.81510000  1.0
  C  C162  1  0.42350000  0.74181000  0.03009000  1.0
  C  C163  1  0.54510000  0.05175000  0.64350000  1.0
  C  C164  1  0.54630000  0.82597000  0.94150000  1.0
  C  C165  1  0.21500000  0.49280000  0.61565000  1.0
  C  C166  1  0.29050000  0.56882000  0.74595000  1.0
  C  C167  1  0.18960000  0.59623000  0.74481000  1.0
  C  C168  1  0.47320000  0.60586000  0.97740000  1.0
  C  C169  1  0.30120000  0.51517000  0.67940000  1.0
  C  C170  1  0.14710000  0.82130000  0.69340000  1.0
  C  C171  1  0.42870000  0.82570000  0.03157000  1.0
  C  C172  1  0.38490000  0.59480000  0.81350000  1.0
  C  C173  1  0.37540000  0.57824000  0.90890000  1.0
  C  C174  1  0.40250000  0.13795000  0.52804000  1.0
  C  C175  1  0.46040000  0.01019000  0.59610000  1.0
  C  C176  1  0.38850000  0.05524000  0.53670000  1.0
  C  C177  1  0.54630000  0.74141000  0.93810000  1.0
  C  C178  1  0.33050000  0.81666000  0.66680000  1.0
  C  C179  1  0.21200000  0.79429000  0.86738000  1.0
  C  C180  1  0.36390000  0.90553000  0.66440000  1.0
  C  C181  1  0.44380000  0.92021000  0.60740000  1.0
  C  C182  1  0.60740000  0.92908000  0.17910000  1.0
  C  C183  1  0.98210000  0.80246000  0.48236000  1.0
  C  C184  1  0.75290000  0.69049000  0.22509000  1.0
  C  C185  1  0.57840000  0.68030000  0.25030000  1.0
  C  C186  1  0.05450000  0.36498000  0.13210000  1.0
  C  C187  1  0.78370000  0.70387000  0.31510000  1.0
  C  C188  1  0.92350000  0.75819000  0.53009000  1.0
  C  C189  1  0.04510000  0.44825000  0.14350000  1.0
  C  C190  1  0.04630000  0.67403000  0.44150000  1.0
  C  C191  1  0.71500000  0.00720000  0.11565000  1.0
  C  C192  1  0.79050000  0.93118000  0.24595000  1.0
  C  C193  1  0.68960000  0.90377000  0.24481000  1.0
  C  C194  1  0.97320000  0.89414000  0.47740000  1.0
  C  C195  1  0.80120000  0.98483000  0.17940000  1.0
  C  C196  1  0.64710000  0.67870000  0.19340000  1.0
  C  C197  1  0.92870000  0.67430000  0.53157000  1.0
  C  C198  1  0.88490000  0.90520000  0.31350000  1.0
  C  C199  1  0.87540000  0.92176000  0.40890000  1.0
  C  C200  1  0.90250000  0.36205000  0.02804000  1.0
  C  C201  1  0.96040000  0.48981000  0.09610000  1.0
  C  C202  1  0.88850000  0.44476000  0.03670000  1.0
  C  C203  1  0.04630000  0.75859000  0.43810000  1.0
  C  C204  1  0.83050000  0.68334000  0.16680000  1.0
  C  C205  1  0.71200000  0.70571000  0.36738000  1.0
  C  C206  1  0.86390000  0.59447000  0.16440000  1.0
  C  C207  1  0.94380000  0.57979000  0.10740000  1.0
  C  C208  1  0.89260000  0.42908000  0.32090000  1.0
  C  C209  1  0.51790000  0.30246000  0.01764000  1.0
  C  C210  1  0.74710000  0.19049000  0.27491000  1.0
  C  C211  1  0.92160000  0.18030000  0.24970000  1.0
  C  C212  1  0.44550000  0.86498000  0.36790000  1.0
  C  C213  1  0.71630000  0.20387000  0.18490000  1.0
  C  C214  1  0.57650000  0.25819000  0.96991000  1.0
  C  C215  1  0.45490000  0.94825000  0.35650000  1.0
  C  C216  1  0.45370000  0.17403000  0.05850000  1.0
  C  C217  1  0.78500000  0.50720000  0.38435000  1.0
  C  C218  1  0.70950000  0.43118000  0.25405000  1.0
  C  C219  1  0.81040000  0.40377000  0.25519000  1.0
  C  C220  1  0.52680000  0.39414000  0.02260000  1.0
  C  C221  1  0.69880000  0.48483000  0.32060000  1.0
  C  C222  1  0.85290000  0.17870000  0.30660000  1.0
  C  C223  1  0.57130000  0.17430000  0.96843000  1.0
  C  C224  1  0.61510000  0.40520000  0.18650000  1.0
  C  C225  1  0.62460000  0.42176000  0.09110000  1.0
  C  C226  1  0.59750000  0.86205000  0.47196000  1.0
  C  C227  1  0.53960000  0.98981000  0.40390000  1.0
  C  C228  1  0.61150000  0.94476000  0.46330000  1.0
  C  C229  1  0.45370000  0.25859000  0.06190000  1.0
  C  C230  1  0.66950000  0.18334000  0.33320000  1.0
  C  C231  1  0.78800000  0.20571000  0.13262000  1.0
  C  C232  1  0.63610000  0.09447000  0.33560000  1.0
  C  C233  1  0.55620000  0.07979000  0.39260000  1.0
  N  N234  1  0.01124000  0.36893000  0.51236000  1.0
  N  N235  1  0.38089000  0.02037000  0.88675000  1.0
  N  N236  1  0.01578000  0.67877000  0.92433000  1.0
  N  N237  1  0.38962000  0.30581000  0.66265000  1.0
  N  N238  1  0.48876000  0.86893000  0.98764000  1.0
  N  N239  1  0.11911000  0.52037000  0.61325000  1.0
  N  N240  1  0.48422000  0.17877000  0.57567000  1.0
  N  N241  1  0.11038000  0.80581000  0.83735000  1.0
  N  N242  1  0.98876000  0.63107000  0.48764000  1.0
  N  N243  1  0.61911000  0.97963000  0.11325000  1.0
  N  N244  1  0.98422000  0.32123000  0.07567000  1.0
  N  N245  1  0.61038000  0.69419000  0.33735000  1.0
  N  N246  1  0.51124000  0.13107000  0.01236000  1.0
  N  N247  1  0.88089000  0.47963000  0.38675000  1.0
  N  N248  1  0.51578000  0.82123000  0.42433000  1.0
  N  N249  1  0.88962000  0.19419000  0.16265000  1.0
  O  O250  1  0.11347000  0.49888000  0.42107000  1.0
  O  O251  1  0.20195000  0.58293000  0.29693000  1.0
  O  O252  1  0.62118000  0.31387000  0.67173000  1.0
  O  O253  1  0.23726000  0.40738000  0.33093000  1.0
  O  O254  1  0.30330000  0.24596000  0.28597000  1.0
  O  O255  1  0.36682000  0.30945000  0.46192000  1.0
  O  O256  1  0.38653000  0.99888000  0.07893000  1.0
  O  O257  1  0.29805000  0.08293000  0.20307000  1.0
  O  O258  1  0.87882000  0.81387000  0.82827000  1.0
  O  O259  1  0.26274000  0.90738000  0.16907000  1.0
  O  O260  1  0.19670000  0.74596000  0.21403000  1.0
  O  O261  1  0.13318000  0.80945000  0.03808000  1.0
  O  O262  1  0.88653000  0.50112000  0.57893000  1.0
  O  O263  1  0.79805000  0.41707000  0.70307000  1.0
  O  O264  1  0.37882000  0.68613000  0.32827000  1.0
  O  O265  1  0.76274000  0.59262000  0.66907000  1.0
  O  O266  1  0.69670000  0.75404000  0.71403000  1.0
  O  O267  1  0.63318000  0.69055000  0.53808000  1.0
  O  O268  1  0.61347000  0.00112000  0.92107000  1.0
  O  O269  1  0.70195000  0.91707000  0.79693000  1.0
  O  O270  1  0.12118000  0.18613000  0.17173000  1.0
  O  O271  1  0.73726000  0.09262000  0.83093000  1.0
  O  O272  1  0.80330000  0.25404000  0.78597000  1.0
  O  O273  1  0.86682000  0.19055000  0.96192000  1.0
