# generated using pymatgen
data_Cd5H6(C4N11)3
_symmetry_space_group_name_H-M   'P 1'
_cell_length_a   13.24330000
_cell_length_b   26.33970000
_cell_length_c   26.33970000
_cell_angle_alpha   120.00000000
_cell_angle_beta   90.00000000
_cell_angle_gamma   90.00000000
_symmetry_Int_Tables_number   1
_chemical_formula_structural   Cd5H6(C4N11)3
_chemical_formula_sum   'Cd40 H48 C96 N264'
_cell_volume   7956.98422940
_cell_formula_units_Z   8
loop_
 _symmetry_equiv_pos_site_id
 _symmetry_equiv_pos_as_xyz
  1  'x, y, z'
loop_
 _atom_site_type_symbol
 _atom_site_label
 _atom_site_symmetry_multiplicity
 _atom_site_fract_x
 _atom_site_fract_y
 _atom_site_fract_z
 _atom_site_occupancy
  Cd  Cd0  1  0.00000000  0.84112000  0.00000000  1.0
  Cd  Cd1  1  0.75376000  0.75104000  0.50208000  1.0
  Cd  Cd2  1  0.24880000  0.00000000  0.24939000  1.0
  Cd  Cd3  1  0.34436000  0.33333333  0.66666667  1.0
  Cd  Cd4  1  0.75120000  0.00000000  0.24939000  1.0
  Cd  Cd5  1  0.75376000  0.24897000  0.75104000  1.0
  Cd  Cd6  1  0.75120000  0.00000000  0.75061000  1.0
  Cd  Cd7  1  0.24880000  0.00000000  0.75061000  1.0
  Cd  Cd8  1  0.00000000  0.15888000  0.00000000  1.0
  Cd  Cd9  1  0.00000000  0.00000000  0.15888000  1.0
  Cd  Cd10  1  0.50000000  0.00000000  0.34182000  1.0
  Cd  Cd11  1  0.50000000  0.34182000  0.34182000  1.0
  Cd  Cd12  1  0.65564000  0.33333333  0.66666667  1.0
  Cd  Cd13  1  0.50000000  0.65818000  0.00000000  1.0
  Cd  Cd14  1  0.50000000  0.65818000  0.65818000  1.0
  Cd  Cd15  1  0.75120000  0.75061000  0.00000000  1.0
  Cd  Cd16  1  0.24624000  0.24897000  0.75104000  1.0
  Cd  Cd17  1  0.24624000  0.75104000  0.50208000  1.0
  Cd  Cd18  1  0.75120000  0.24939000  0.24939000  1.0
  Cd  Cd19  1  0.75120000  0.75061000  0.75061000  1.0
  Cd  Cd20  1  0.75376000  0.49793000  0.24897000  1.0
  Cd  Cd21  1  0.24624000  0.24897000  0.49793000  1.0
  Cd  Cd22  1  0.00000000  0.15888000  0.15888000  1.0
  Cd  Cd23  1  0.75376000  0.50207000  0.75103000  1.0
  Cd  Cd24  1  0.24880000  0.24939000  0.24939000  1.0
  Cd  Cd25  1  0.24880000  0.24939000  0.00000000  1.0
  Cd  Cd26  1  0.50000000  0.34182000  0.00000000  1.0
  Cd  Cd27  1  0.24880000  0.75061000  0.75061000  1.0
  Cd  Cd28  1  0.34436000  0.66666667  0.33333333  1.0
  Cd  Cd29  1  0.00000000  0.00000000  0.84112000  1.0
  Cd  Cd30  1  0.24624000  0.49793000  0.24897000  1.0
  Cd  Cd31  1  0.65564000  0.66666667  0.33333333  1.0
  Cd  Cd32  1  0.24880000  0.75061000  0.00000000  1.0
  Cd  Cd33  1  0.75120000  0.24939000  0.00000000  1.0
  Cd  Cd34  1  0.24624000  0.50207000  0.75103000  1.0
  Cd  Cd35  1  0.00000000  0.84112000  0.84112000  1.0
  Cd  Cd36  1  0.75376000  0.24897000  0.49793000  1.0
  Cd  Cd37  1  0.24624000  0.75104000  0.24897000  1.0
  Cd  Cd38  1  0.75376000  0.75104000  0.24897000  1.0
  Cd  Cd39  1  0.50000000  0.00000000  0.65818000  1.0
  H  H40  1  0.68040000  0.86780000  0.13220000  1.0
  H  H41  1  0.68040000  0.26440000  0.13220000  1.0
  H  H42  1  0.31960000  0.13220000  0.26440000  1.0
  H  H43  1  0.31960000  0.73560000  0.86780000  1.0
  H  H44  1  0.00000000  0.72755000  0.45510000  1.0
  H  H45  1  0.58050000  0.67820000  0.54360000  1.0
  H  H46  1  0.00000000  0.45510000  0.72755000  1.0
  H  H47  1  0.50000000  0.45390000  0.22695000  1.0
  H  H48  1  0.41950000  0.67820000  0.54360000  1.0
  H  H49  1  0.58050000  0.32180000  0.45640000  1.0
  H  H50  1  0.68040000  0.73560000  0.86780000  1.0
  H  H51  1  0.41950000  0.54360000  0.67820000  1.0
  H  H52  1  0.50000000  0.77305000  0.54610000  1.0
  H  H53  1  0.00000000  0.54490000  0.27245000  1.0
  H  H54  1  0.58050000  0.86540000  0.32180000  1.0
  H  H55  1  0.31960000  0.86780000  0.73560000  1.0
  H  H56  1  0.50000000  0.22695000  0.77305000  1.0
  H  H57  1  0.50000000  0.77305000  0.22695000  1.0
  H  H58  1  0.41950000  0.86540000  0.32180000  1.0
  H  H59  1  0.41950000  0.32180000  0.45640000  1.0
  H  H60  1  0.00000000  0.27245000  0.72755000  1.0
  H  H61  1  0.41950000  0.45640000  0.13460000  1.0
  H  H62  1  0.50000000  0.22695000  0.45390000  1.0
  H  H63  1  0.00000000  0.72755000  0.27245000  1.0
  H  H64  1  0.58050000  0.54360000  0.67820000  1.0
  H  H65  1  0.58050000  0.45640000  0.13460000  1.0
  H  H66  1  0.50000000  0.54610000  0.77305000  1.0
  H  H67  1  0.58050000  0.13460000  0.67820000  1.0
  H  H68  1  0.31960000  0.86780000  0.13220000  1.0
  H  H69  1  0.41950000  0.67820000  0.13460000  1.0
  H  H70  1  0.31960000  0.26440000  0.13220000  1.0
  H  H71  1  0.41950000  0.54360000  0.86540000  1.0
  H  H72  1  0.68040000  0.13220000  0.26440000  1.0
  H  H73  1  0.68040000  0.13220000  0.86780000  1.0
  H  H74  1  0.58050000  0.86540000  0.54360000  1.0
  H  H75  1  0.41950000  0.86540000  0.54360000  1.0
  H  H76  1  0.41950000  0.13460000  0.45640000  1.0
  H  H77  1  0.58050000  0.32180000  0.86540000  1.0
  H  H78  1  0.58050000  0.54360000  0.86540000  1.0
  H  H79  1  0.58050000  0.67820000  0.13460000  1.0
  H  H80  1  0.58050000  0.13460000  0.45640000  1.0
  H  H81  1  0.41950000  0.32180000  0.86540000  1.0
  H  H82  1  0.00000000  0.27245000  0.54490000  1.0
  H  H83  1  0.41950000  0.13460000  0.67820000  1.0
  H  H84  1  0.68040000  0.86780000  0.73560000  1.0
  H  H85  1  0.58050000  0.45640000  0.32180000  1.0
  H  H86  1  0.41950000  0.45640000  0.32180000  1.0
  H  H87  1  0.31960000  0.13220000  0.86780000  1.0
  C  C88  1  0.04910000  0.00000000  0.32650000  1.0
  C  C89  1  0.62970000  0.30410000  0.42620000  1.0
  C  C90  1  0.37030000  0.30410000  0.42620000  1.0
  C  C91  1  0.62970000  0.57380000  0.69590000  1.0
  C  C92  1  0.37030000  0.12210000  0.42620000  1.0
  C  C93  1  0.00000000  0.74835000  0.25165000  1.0
  C  C94  1  0.62970000  0.87790000  0.57380000  1.0
  C  C95  1  0.84160000  0.56210000  0.17560000  1.0
  C  C96  1  0.15840000  0.17560000  0.61350000  1.0
  C  C97  1  0.74240000  0.12170000  0.24340000  1.0
  C  C98  1  0.50000000  0.24775000  0.75225000  1.0
  C  C99  1  0.25760000  0.12170000  0.87830000  1.0
  C  C100  1  0.04910000  0.67350000  0.67350000  1.0
  C  C101  1  0.95090000  0.00000000  0.67350000  1.0
  C  C102  1  0.54860000  0.17270000  0.17270000  1.0
  C  C103  1  0.62970000  0.30410000  0.87790000  1.0
  C  C104  1  0.15840000  0.61350000  0.17560000  1.0
  C  C105  1  0.00000000  0.50330000  0.25165000  1.0
  C  C106  1  0.62970000  0.12210000  0.69590000  1.0
  C  C107  1  0.37030000  0.69590000  0.57380000  1.0
  C  C108  1  0.50000000  0.75225000  0.50450000  1.0
  C  C109  1  0.37030000  0.57380000  0.69590000  1.0
  C  C110  1  0.25760000  0.12170000  0.24340000  1.0
  C  C111  1  0.62970000  0.87790000  0.30410000  1.0
  C  C112  1  0.74240000  0.12170000  0.87830000  1.0
  C  C113  1  0.62970000  0.12210000  0.42620000  1.0
  C  C114  1  0.00000000  0.49670000  0.74835000  1.0
  C  C115  1  0.37030000  0.87790000  0.57380000  1.0
  C  C116  1  0.00000000  0.25165000  0.74835000  1.0
  C  C117  1  0.04910000  0.00000000  0.67350000  1.0
  C  C118  1  0.37030000  0.42620000  0.30410000  1.0
  C  C119  1  0.84160000  0.17560000  0.56210000  1.0
  C  C120  1  0.84160000  0.61350000  0.17560000  1.0
  C  C121  1  0.25760000  0.24340000  0.12170000  1.0
  C  C122  1  0.15840000  0.56210000  0.17560000  1.0
  C  C123  1  0.84160000  0.43790000  0.82440000  1.0
  C  C124  1  0.37030000  0.30410000  0.87790000  1.0
  C  C125  1  0.37030000  0.12210000  0.69590000  1.0
  C  C126  1  0.45140000  0.17270000  0.17270000  1.0
  C  C127  1  0.45140000  0.82730000  0.00000000  1.0
  C  C128  1  0.54860000  0.17270000  0.00000000  1.0
  C  C129  1  0.25760000  0.87830000  0.75660000  1.0
  C  C130  1  0.50000000  0.50450000  0.75225000  1.0
  C  C131  1  0.25760000  0.87830000  0.12170000  1.0
  C  C132  1  0.62970000  0.57380000  0.87790000  1.0
  C  C133  1  0.84160000  0.61350000  0.43790000  1.0
  C  C134  1  0.50000000  0.49550000  0.24775000  1.0
  C  C135  1  0.37030000  0.87790000  0.30410000  1.0
  C  C136  1  0.84160000  0.17560000  0.61350000  1.0
  C  C137  1  0.15840000  0.43790000  0.82440000  1.0
  C  C138  1  0.54860000  0.82730000  0.00000000  1.0
  C  C139  1  0.15840000  0.61350000  0.43790000  1.0
  C  C140  1  0.37030000  0.69590000  0.12210000  1.0
  C  C141  1  0.50000000  0.75225000  0.24775000  1.0
  C  C142  1  0.37030000  0.57380000  0.87790000  1.0
  C  C143  1  0.95090000  0.00000000  0.32650000  1.0
  C  C144  1  0.84160000  0.82440000  0.38650000  1.0
  C  C145  1  0.45140000  0.82730000  0.82730000  1.0
  C  C146  1  0.95090000  0.67350000  0.00000000  1.0
  C  C147  1  0.74240000  0.87830000  0.12170000  1.0
  C  C148  1  0.62970000  0.42620000  0.12210000  1.0
  C  C149  1  0.15840000  0.43790000  0.61350000  1.0
  C  C150  1  0.04910000  0.32650000  0.32650000  1.0
  C  C151  1  0.84160000  0.38650000  0.82440000  1.0
  C  C152  1  0.15840000  0.17560000  0.56210000  1.0
  C  C153  1  0.54860000  0.00000000  0.17270000  1.0
  C  C154  1  0.25760000  0.75660000  0.87830000  1.0
  C  C155  1  0.15840000  0.82440000  0.38650000  1.0
  C  C156  1  0.62970000  0.42620000  0.30410000  1.0
  C  C157  1  0.84160000  0.38650000  0.56210000  1.0
  C  C158  1  0.54860000  0.00000000  0.82730000  1.0
  C  C159  1  0.15840000  0.38650000  0.56210000  1.0
  C  C160  1  0.45140000  0.17270000  0.00000000  1.0
  C  C161  1  0.00000000  0.25165000  0.50330000  1.0
  C  C162  1  0.95090000  0.67350000  0.67350000  1.0
  C  C163  1  0.45140000  0.00000000  0.17270000  1.0
  C  C164  1  0.62970000  0.69590000  0.12210000  1.0
  C  C165  1  0.54860000  0.82730000  0.82730000  1.0
  C  C166  1  0.84160000  0.82440000  0.43790000  1.0
  C  C167  1  0.00000000  0.74835000  0.49670000  1.0
  C  C168  1  0.74240000  0.87830000  0.75660000  1.0
  C  C169  1  0.15840000  0.82440000  0.43790000  1.0
  C  C170  1  0.95090000  0.32650000  0.32650000  1.0
  C  C171  1  0.45140000  0.00000000  0.82730000  1.0
  C  C172  1  0.37030000  0.42620000  0.12210000  1.0
  C  C173  1  0.04910000  0.32650000  0.00000000  1.0
  C  C174  1  0.74240000  0.75660000  0.87830000  1.0
  C  C175  1  0.84160000  0.43790000  0.61350000  1.0
  C  C176  1  0.74240000  0.24340000  0.12170000  1.0
  C  C177  1  0.84160000  0.56210000  0.38650000  1.0
  C  C178  1  0.15840000  0.38650000  0.82440000  1.0
  C  C179  1  0.95090000  0.32650000  0.00000000  1.0
  C  C180  1  0.50000000  0.24775000  0.49550000  1.0
  C  C181  1  0.62970000  0.69590000  0.57380000  1.0
  C  C182  1  0.15840000  0.56210000  0.38650000  1.0
  C  C183  1  0.04910000  0.67350000  0.00000000  1.0
  N  N184  1  0.87240000  0.80170000  0.87590000  1.0
  N  N185  1  0.04920000  0.20715000  0.41430000  1.0
  N  N186  1  0.75320000  0.62470000  0.24940000  1.0
  N  N187  1  0.95080000  0.79285000  0.58570000  1.0
  N  N188  1  0.21340000  0.56970000  0.34790000  1.0
  N  N189  1  0.41840000  0.22090000  0.00000000  1.0
  N  N190  1  0.71050000  0.84770000  0.27630000  1.0
  N  N191  1  0.24680000  0.24940000  0.62470000  1.0
  N  N192  1  0.62650000  0.07170000  0.37570000  1.0
  N  N193  1  0.20830000  0.92770000  0.77340000  1.0
  N  N194  1  0.87240000  0.19830000  0.07420000  1.0
  N  N195  1  0.58160000  0.00000000  0.77910000  1.0
  N  N196  1  0.54960000  0.70815000  0.29185000  1.0
  N  N197  1  0.79170000  0.84570000  0.77340000  1.0
  N  N198  1  0.91880000  0.53010000  0.76505000  1.0
  N  N199  1  0.20830000  0.77340000  0.84570000  1.0
  N  N200  1  0.12760000  0.80170000  0.87590000  1.0
  N  N201  1  0.00000000  0.74950000  0.74950000  1.0
  N  N202  1  0.24510000  0.87880000  0.25590000  1.0
  N  N203  1  0.21340000  0.65210000  0.22180000  1.0
  N  N204  1  0.62650000  0.30400000  0.37570000  1.0
  N  N205  1  0.70640000  0.92840000  0.27260000  1.0
  N  N206  1  0.78660000  0.22180000  0.65210000  1.0
  N  N207  1  0.91860000  0.27830000  0.00000000  1.0
  N  N208  1  0.04920000  0.79285000  0.58570000  1.0
  N  N209  1  0.20830000  0.84570000  0.77340000  1.0
  N  N210  1  0.29360000  0.65580000  0.92840000  1.0
  N  N211  1  0.20830000  0.07230000  0.84570000  1.0
  N  N212  1  0.20830000  0.07230000  0.22660000  1.0
  N  N213  1  0.29360000  0.34420000  0.27260000  1.0
  N  N214  1  0.41760000  0.73620000  0.47240000  1.0
  N  N215  1  0.00000000  0.25050000  0.25050000  1.0
  N  N216  1  0.28950000  0.42860000  0.15230000  1.0
  N  N217  1  0.29360000  0.65580000  0.72740000  1.0
  N  N218  1  0.58240000  0.73620000  0.47240000  1.0
  N  N219  1  0.37350000  0.69600000  0.62430000  1.0
  N  N220  1  0.79170000  0.22660000  0.07230000  1.0
  N  N221  1  0.75490000  0.87880000  0.62290000  1.0
  N  N222  1  0.79170000  0.22660000  0.15430000  1.0
  N  N223  1  0.04920000  0.79285000  0.20715000  1.0
  N  N224  1  0.24680000  0.62470000  0.37530000  1.0
  N  N225  1  0.79170000  0.84570000  0.07230000  1.0
  N  N226  1  0.37350000  0.62430000  0.92830000  1.0
  N  N227  1  0.75490000  0.87880000  0.25590000  1.0
  N  N228  1  0.91860000  0.27830000  0.27830000  1.0
  N  N229  1  0.37350000  0.07170000  0.37570000  1.0
  N  N230  1  0.45040000  0.29185000  0.70815000  1.0
  N  N231  1  0.21340000  0.22180000  0.65210000  1.0
  N  N232  1  0.29360000  0.34420000  0.07160000  1.0
  N  N233  1  0.12760000  0.87590000  0.80170000  1.0
  N  N234  1  0.58240000  0.26380000  0.73620000  1.0
  N  N235  1  0.62650000  0.30400000  0.92830000  1.0
  N  N236  1  0.91860000  0.72170000  0.00000000  1.0
  N  N237  1  0.95080000  0.41430000  0.20715000  1.0
  N  N238  1  0.41840000  0.22090000  0.22090000  1.0
  N  N239  1  0.95080000  0.20715000  0.79285000  1.0
  N  N240  1  0.24680000  0.37530000  0.62470000  1.0
  N  N241  1  0.12760000  0.92580000  0.12410000  1.0
  N  N242  1  0.37350000  0.92830000  0.30400000  1.0
  N  N243  1  0.71050000  0.27630000  0.42860000  1.0
  N  N244  1  0.28950000  0.42860000  0.27630000  1.0
  N  N245  1  0.87240000  0.12410000  0.19830000  1.0
  N  N246  1  0.62650000  0.92830000  0.30400000  1.0
  N  N247  1  0.75490000  0.25590000  0.87880000  1.0
  N  N248  1  0.37350000  0.30400000  0.37570000  1.0
  N  N249  1  0.58160000  0.00000000  0.22090000  1.0
  N  N250  1  0.54960000  0.41630000  0.70815000  1.0
  N  N251  1  0.70640000  0.34420000  0.27260000  1.0
  N  N252  1  0.12760000  0.87590000  0.07420000  1.0
  N  N253  1  0.75490000  0.37710000  0.12120000  1.0
  N  N254  1  0.20830000  0.92770000  0.15430000  1.0
  N  N255  1  0.71050000  0.27630000  0.84770000  1.0
  N  N256  1  0.50000000  0.74940000  0.74940000  1.0
  N  N257  1  0.78660000  0.77820000  0.34790000  1.0
  N  N258  1  0.45040000  0.41630000  0.70815000  1.0
  N  N259  1  0.29360000  0.27260000  0.34420000  1.0
  N  N260  1  0.79170000  0.07230000  0.84570000  1.0
  N  N261  1  0.75320000  0.62470000  0.37530000  1.0
  N  N262  1  0.21340000  0.34790000  0.77820000  1.0
  N  N263  1  0.87240000  0.12410000  0.92580000  1.0
  N  N264  1  0.91880000  0.76505000  0.23495000  1.0
  N  N265  1  0.79170000  0.77340000  0.84570000  1.0
  N  N266  1  0.28950000  0.72370000  0.15230000  1.0
  N  N267  1  0.20830000  0.22660000  0.15430000  1.0
  N  N268  1  0.24680000  0.62470000  0.24940000  1.0
  N  N269  1  0.54960000  0.58370000  0.29185000  1.0
  N  N270  1  0.28950000  0.84770000  0.57140000  1.0
  N  N271  1  0.04920000  0.41430000  0.20715000  1.0
  N  N272  1  0.78660000  0.77820000  0.43030000  1.0
  N  N273  1  0.08140000  0.27830000  0.00000000  1.0
  N  N274  1  0.91860000  0.00000000  0.27830000  1.0
  N  N275  1  0.28950000  0.15230000  0.72370000  1.0
  N  N276  1  0.24510000  0.37710000  0.12120000  1.0
  N  N277  1  0.62650000  0.62430000  0.69600000  1.0
  N  N278  1  0.37350000  0.30400000  0.92830000  1.0
  N  N279  1  0.95080000  0.20715000  0.41430000  1.0
  N  N280  1  0.75490000  0.12120000  0.74410000  1.0
  N  N281  1  0.71050000  0.57140000  0.72370000  1.0
  N  N282  1  0.87240000  0.07420000  0.19830000  1.0
  N  N283  1  0.21340000  0.43030000  0.77820000  1.0
  N  N284  1  0.21340000  0.22180000  0.56970000  1.0
  N  N285  1  0.00000000  0.00000000  0.25050000  1.0
  N  N286  1  0.28950000  0.84770000  0.27630000  1.0
  N  N287  1  0.28950000  0.57140000  0.84770000  1.0
  N  N288  1  0.21340000  0.34790000  0.56970000  1.0
  N  N289  1  0.62650000  0.69600000  0.62430000  1.0
  N  N290  1  0.62650000  0.92830000  0.62430000  1.0
  N  N291  1  0.20830000  0.22660000  0.07230000  1.0
  N  N292  1  0.00000000  0.00000000  0.74950000  1.0
  N  N293  1  0.50000000  0.25060000  0.00000000  1.0
  N  N294  1  0.75490000  0.74410000  0.62290000  1.0
  N  N295  1  0.70640000  0.92840000  0.65580000  1.0
  N  N296  1  0.50000000  0.00000000  0.74940000  1.0
  N  N297  1  0.41760000  0.26380000  0.52760000  1.0
  N  N298  1  0.20830000  0.77340000  0.92770000  1.0
  N  N299  1  0.12760000  0.19830000  0.07420000  1.0
  N  N300  1  0.75320000  0.37530000  0.62470000  1.0
  N  N301  1  0.08120000  0.23495000  0.76505000  1.0
  N  N302  1  0.78660000  0.43030000  0.77820000  1.0
  N  N303  1  0.75320000  0.75060000  0.37530000  1.0
  N  N304  1  0.21340000  0.56970000  0.22180000  1.0
  N  N305  1  0.24510000  0.12120000  0.37710000  1.0
  N  N306  1  0.08140000  0.00000000  0.27830000  1.0
  N  N307  1  0.24510000  0.87880000  0.62290000  1.0
  N  N308  1  0.00000000  0.74950000  0.00000000  1.0
  N  N309  1  0.78660000  0.56970000  0.34790000  1.0
  N  N310  1  0.87240000  0.19830000  0.12410000  1.0
  N  N311  1  0.58240000  0.26380000  0.52760000  1.0
  N  N312  1  0.28950000  0.57140000  0.72370000  1.0
  N  N313  1  0.29360000  0.92840000  0.65580000  1.0
  N  N314  1  0.95080000  0.58570000  0.79285000  1.0
  N  N315  1  0.24510000  0.74410000  0.62290000  1.0
  N  N316  1  0.79170000  0.92770000  0.15430000  1.0
  N  N317  1  0.37350000  0.62430000  0.69600000  1.0
  N  N318  1  0.37350000  0.07170000  0.69600000  1.0
  N  N319  1  0.28950000  0.72370000  0.57140000  1.0
  N  N320  1  0.24510000  0.62290000  0.74410000  1.0
  N  N321  1  0.54960000  0.29185000  0.70815000  1.0
  N  N322  1  0.12760000  0.12410000  0.92580000  1.0
  N  N323  1  0.12760000  0.12410000  0.19830000  1.0
  N  N324  1  0.12760000  0.80170000  0.92580000  1.0
  N  N325  1  0.79170000  0.07230000  0.22660000  1.0
  N  N326  1  0.70640000  0.34420000  0.07160000  1.0
  N  N327  1  0.91860000  0.00000000  0.72170000  1.0
  N  N328  1  0.29360000  0.27260000  0.92840000  1.0
  N  N329  1  0.71050000  0.15230000  0.72370000  1.0
  N  N330  1  0.24510000  0.62290000  0.87880000  1.0
  N  N331  1  0.71050000  0.84770000  0.57140000  1.0
  N  N332  1  0.87240000  0.07420000  0.87590000  1.0
  N  N333  1  0.62650000  0.62430000  0.92830000  1.0
  N  N334  1  0.41760000  0.52760000  0.26380000  1.0
  N  N335  1  0.78660000  0.56970000  0.22180000  1.0
  N  N336  1  0.37350000  0.69600000  0.07170000  1.0
  N  N337  1  0.91880000  0.23495000  0.46990000  1.0
  N  N338  1  0.41760000  0.26380000  0.73620000  1.0
  N  N339  1  0.79170000  0.92770000  0.77340000  1.0
  N  N340  1  0.87240000  0.87590000  0.07420000  1.0
  N  N341  1  0.08120000  0.76505000  0.53010000  1.0
  N  N342  1  0.91860000  0.72170000  0.72170000  1.0
  N  N343  1  0.58240000  0.47240000  0.73620000  1.0
  N  N344  1  0.28950000  0.27630000  0.84770000  1.0
  N  N345  1  0.75490000  0.62290000  0.74410000  1.0
  N  N346  1  0.08120000  0.76505000  0.23495000  1.0
  N  N347  1  0.45040000  0.70815000  0.29185000  1.0
  N  N348  1  0.75490000  0.37710000  0.25590000  1.0
  N  N349  1  0.71050000  0.42860000  0.27630000  1.0
  N  N350  1  0.87240000  0.92580000  0.80170000  1.0
  N  N351  1  0.70640000  0.27260000  0.34420000  1.0
  N  N352  1  0.87240000  0.87590000  0.80170000  1.0
  N  N353  1  0.54960000  0.29185000  0.58370000  1.0
  N  N354  1  0.41760000  0.73620000  0.26380000  1.0
  N  N355  1  0.91880000  0.76505000  0.53010000  1.0
  N  N356  1  0.87240000  0.92580000  0.12410000  1.0
  N  N357  1  0.78660000  0.65210000  0.22180000  1.0
  N  N358  1  0.08120000  0.23495000  0.46990000  1.0
  N  N359  1  0.21340000  0.77820000  0.34790000  1.0
  N  N360  1  0.70640000  0.27260000  0.92840000  1.0
  N  N361  1  0.08140000  0.00000000  0.72170000  1.0
  N  N362  1  0.28950000  0.27630000  0.42860000  1.0
  N  N363  1  0.58160000  0.22090000  0.22090000  1.0
  N  N364  1  0.24510000  0.74410000  0.12120000  1.0
  N  N365  1  0.37350000  0.92830000  0.62430000  1.0
  N  N366  1  0.70640000  0.65580000  0.72740000  1.0
  N  N367  1  0.75320000  0.37530000  0.75060000  1.0
  N  N368  1  0.58240000  0.52760000  0.26380000  1.0
  N  N369  1  0.24510000  0.25590000  0.37710000  1.0
  N  N370  1  0.71050000  0.72370000  0.15230000  1.0
  N  N371  1  0.70640000  0.72740000  0.07160000  1.0
  N  N372  1  0.29360000  0.92840000  0.27260000  1.0
  N  N373  1  0.75320000  0.24940000  0.62470000  1.0
  N  N374  1  0.62650000  0.69600000  0.07170000  1.0
  N  N375  1  0.12760000  0.92580000  0.80170000  1.0
  N  N376  1  0.50000000  0.25060000  0.25060000  1.0
  N  N377  1  0.71050000  0.72370000  0.57140000  1.0
  N  N378  1  0.70640000  0.07160000  0.72740000  1.0
  N  N379  1  0.58160000  0.77910000  0.00000000  1.0
  N  N380  1  0.78660000  0.65210000  0.43030000  1.0
  N  N381  1  0.75490000  0.12120000  0.37710000  1.0
  N  N382  1  0.21340000  0.77820000  0.43030000  1.0
  N  N383  1  0.41840000  0.77910000  0.00000000  1.0
  N  N384  1  0.24510000  0.12120000  0.74410000  1.0
  N  N385  1  0.70640000  0.65580000  0.92840000  1.0
  N  N386  1  0.71050000  0.42860000  0.15230000  1.0
  N  N387  1  0.24510000  0.25590000  0.87880000  1.0
  N  N388  1  0.58240000  0.73620000  0.26380000  1.0
  N  N389  1  0.37350000  0.37570000  0.30400000  1.0
  N  N390  1  0.12760000  0.19830000  0.12410000  1.0
  N  N391  1  0.62650000  0.07170000  0.69600000  1.0
  N  N392  1  0.37350000  0.37570000  0.07170000  1.0
  N  N393  1  0.78660000  0.34790000  0.77820000  1.0
  N  N394  1  0.04920000  0.58570000  0.79285000  1.0
  N  N395  1  0.29360000  0.07160000  0.34420000  1.0
  N  N396  1  0.04920000  0.20715000  0.79285000  1.0
  N  N397  1  0.21340000  0.65210000  0.43030000  1.0
  N  N398  1  0.29360000  0.07160000  0.72740000  1.0
  N  N399  1  0.41760000  0.47240000  0.73620000  1.0
  N  N400  1  0.45040000  0.70815000  0.41630000  1.0
  N  N401  1  0.21340000  0.43030000  0.65210000  1.0
  N  N402  1  0.41840000  0.00000000  0.77910000  1.0
  N  N403  1  0.29360000  0.72740000  0.07160000  1.0
  N  N404  1  0.24680000  0.75060000  0.37530000  1.0
  N  N405  1  0.75490000  0.74410000  0.12120000  1.0
  N  N406  1  0.12760000  0.07420000  0.87590000  1.0
  N  N407  1  0.08120000  0.46990000  0.23495000  1.0
  N  N408  1  0.08140000  0.72170000  0.72170000  1.0
  N  N409  1  0.71050000  0.15230000  0.42860000  1.0
  N  N410  1  0.78660000  0.34790000  0.56970000  1.0
  N  N411  1  0.87240000  0.80170000  0.92580000  1.0
  N  N412  1  0.54960000  0.70815000  0.41630000  1.0
  N  N413  1  0.08140000  0.72170000  0.00000000  1.0
  N  N414  1  0.50000000  0.00000000  0.25060000  1.0
  N  N415  1  0.20830000  0.15430000  0.22660000  1.0
  N  N416  1  0.91880000  0.46990000  0.23495000  1.0
  N  N417  1  0.08120000  0.53010000  0.76505000  1.0
  N  N418  1  0.41840000  0.77910000  0.77910000  1.0
  N  N419  1  0.78660000  0.43030000  0.65210000  1.0
  N  N420  1  0.79170000  0.15430000  0.92770000  1.0
  N  N421  1  0.08140000  0.27830000  0.27830000  1.0
  N  N422  1  0.62650000  0.37570000  0.30400000  1.0
  N  N423  1  0.29360000  0.72740000  0.65580000  1.0
  N  N424  1  0.58160000  0.77910000  0.77910000  1.0
  N  N425  1  0.78660000  0.22180000  0.56970000  1.0
  N  N426  1  0.75490000  0.62290000  0.87880000  1.0
  N  N427  1  0.45040000  0.29185000  0.58370000  1.0
  N  N428  1  0.00000000  0.25050000  0.00000000  1.0
  N  N429  1  0.75490000  0.25590000  0.37710000  1.0
  N  N430  1  0.62650000  0.37570000  0.07170000  1.0
  N  N431  1  0.71050000  0.57140000  0.84770000  1.0
  N  N432  1  0.79170000  0.77340000  0.92770000  1.0
  N  N433  1  0.50000000  0.74940000  0.00000000  1.0
  N  N434  1  0.24680000  0.37530000  0.75060000  1.0
  N  N435  1  0.70640000  0.07160000  0.34420000  1.0
  N  N436  1  0.20830000  0.84570000  0.07230000  1.0
  N  N437  1  0.20830000  0.15430000  0.92770000  1.0
  N  N438  1  0.91880000  0.23495000  0.76505000  1.0
  N  N439  1  0.45040000  0.58370000  0.29185000  1.0
  N  N440  1  0.12760000  0.07420000  0.19830000  1.0
  N  N441  1  0.41840000  0.00000000  0.22090000  1.0
  N  N442  1  0.79170000  0.15430000  0.22660000  1.0
  N  N443  1  0.24510000  0.37710000  0.25590000  1.0
  N  N444  1  0.70640000  0.72740000  0.65580000  1.0
  N  N445  1  0.58160000  0.22090000  0.00000000  1.0
  N  N446  1  0.28950000  0.15230000  0.42860000  1.0
  N  N447  1  0.95080000  0.79285000  0.20715000  1.0
