# generated using pymatgen
data_LaH18C30(NO3)3
_symmetry_space_group_name_H-M   'P 1'
_cell_length_a   16.26800000
_cell_length_b   18.58200000
_cell_length_c   34.58900000
_cell_angle_alpha   90.00000000
_cell_angle_beta   90.00000000
_cell_angle_gamma   103.81000000
_symmetry_Int_Tables_number   1
_chemical_formula_structural   LaH18C30(NO3)3
_chemical_formula_sum   'La8 H144 C240 N24 O72'
_cell_volume   10153.72239066
_cell_formula_units_Z   8
loop_
 _symmetry_equiv_pos_site_id
 _symmetry_equiv_pos_as_xyz
  1  'x, y, z'
loop_
 _atom_site_type_symbol
 _atom_site_label
 _atom_site_symmetry_multiplicity
 _atom_site_fract_x
 _atom_site_fract_y
 _atom_site_fract_z
 _atom_site_occupancy
  La  La0  1  0.79297000  0.29500000  0.76186000  1.0
  La  La1  1  0.95642000  0.67939000  0.24827000  1.0
  La  La2  1  0.70703000  0.70500000  0.26186000  1.0
  La  La3  1  0.20703000  0.70500000  0.23814000  1.0
  La  La4  1  0.04358000  0.32061000  0.75173000  1.0
  La  La5  1  0.29297000  0.29500000  0.73814000  1.0
  La  La6  1  0.54358000  0.32061000  0.74827000  1.0
  La  La7  1  0.45642000  0.67939000  0.25173000  1.0
  H  H8  1  0.23320000  0.66750000  0.93270000  1.0
  H  H9  1  0.04490000  0.82020000  0.33200000  1.0
  H  H10  1  0.78750000  0.58740000  0.70430000  1.0
  H  H11  1  0.04310000  0.24320000  0.89290000  1.0
  H  H12  1  0.95520000  0.22180000  0.34230000  1.0
  H  H13  1  0.54520000  0.32220000  0.86810000  1.0
  H  H14  1  0.68110000  0.86390000  0.54610000  1.0
  H  H15  1  0.00300000  0.78390000  0.04550000  1.0
  H  H16  1  0.72330000  0.17330000  0.67660000  1.0
  H  H17  1  0.74670000  0.51420000  0.36140000  1.0
  H  H18  1  0.16170000  0.52440000  0.74280000  1.0
  H  H19  1  0.84410000  0.50090000  0.73480000  1.0
  H  H20  1  0.13870000  0.06340000  0.29170000  1.0
  H  H21  1  0.04630000  0.93980000  0.80810000  1.0
  H  H22  1  0.74890000  0.07220000  0.64290000  1.0
  H  H23  1  0.17400000  0.96860000  0.25550000  1.0
  H  H24  1  0.21250000  0.41260000  0.29570000  1.0
  H  H25  1  0.07180000  0.42750000  0.38920000  1.0
  H  H26  1  0.20530000  0.70060000  0.06720000  1.0
  H  H27  1  0.53760000  0.71320000  0.95310000  1.0
  H  H28  1  0.30060000  0.42010000  0.11190000  1.0
  H  H29  1  0.95690000  0.75680000  0.10710000  1.0
  H  H30  1  0.67400000  0.96860000  0.24450000  1.0
  H  H31  1  0.83830000  0.47560000  0.25720000  1.0
  H  H32  1  0.95830000  0.95750000  0.61820000  1.0
  H  H33  1  0.95510000  0.17980000  0.66800000  1.0
  H  H34  1  0.45690000  0.75680000  0.39290000  1.0
  H  H35  1  0.33570000  0.31480000  0.63150000  1.0
  H  H36  1  0.24610000  0.81590000  0.84650000  1.0
  H  H37  1  0.45510000  0.17980000  0.83200000  1.0
  H  H38  1  0.36060000  0.10930000  0.34390000  1.0
  H  H39  1  0.03760000  0.71320000  0.54690000  1.0
  H  H40  1  0.64210000  0.16370000  0.95080000  1.0
  H  H41  1  0.77670000  0.82670000  0.17660000  1.0
  H  H42  1  0.95480000  0.67780000  0.36810000  1.0
  H  H43  1  0.29470000  0.29940000  0.56720000  1.0
  H  H44  1  0.10280000  0.69770000  0.66600000  1.0
  H  H45  1  0.24670000  0.51420000  0.13860000  1.0
  H  H46  1  0.54170000  0.04250000  0.11820000  1.0
  H  H47  1  0.00130000  0.26130000  0.50720000  1.0
  H  H48  1  0.54490000  0.82020000  0.16800000  1.0
  H  H49  1  0.14210000  0.16370000  0.54920000  1.0
  H  H50  1  0.70530000  0.70060000  0.43280000  1.0
  H  H51  1  0.28750000  0.58740000  0.79570000  1.0
  H  H52  1  0.51660000  0.91510000  0.13090000  1.0
  H  H53  1  0.75110000  0.92780000  0.14290000  1.0
  H  H54  1  0.46240000  0.28680000  0.04690000  1.0
  H  H55  1  0.75390000  0.18410000  0.15350000  1.0
  H  H56  1  0.69940000  0.57990000  0.88810000  1.0
  H  H57  1  0.48340000  0.08490000  0.86910000  1.0
  H  H58  1  0.99880000  0.30890000  0.56850000  1.0
  H  H59  1  0.50130000  0.26130000  0.99280000  1.0
  H  H60  1  0.65590000  0.49910000  0.23480000  1.0
  H  H61  1  0.61460000  0.80300000  0.50050000  1.0
  H  H62  1  0.54480000  0.77820000  0.84230000  1.0
  H  H63  1  0.18110000  0.86390000  0.95390000  1.0
  H  H64  1  0.79470000  0.29940000  0.93280000  1.0
  H  H65  1  0.01290000  0.51210000  0.35830000  1.0
  H  H66  1  0.11460000  0.80300000  0.99950000  1.0
  H  H67  1  0.85790000  0.83630000  0.45080000  1.0
  H  H68  1  0.76680000  0.33250000  0.06730000  1.0
  H  H69  1  0.24890000  0.07220000  0.85710000  1.0
  H  H70  1  0.82600000  0.03140000  0.74450000  1.0
  H  H71  1  0.00120000  0.69110000  0.43150000  1.0
  H  H72  1  0.98710000  0.48790000  0.64170000  1.0
  H  H73  1  0.54630000  0.93980000  0.69190000  1.0
  H  H74  1  0.99040000  0.95700000  0.21900000  1.0
  H  H75  1  0.45370000  0.06020000  0.30810000  1.0
  H  H76  1  0.36130000  0.93660000  0.79170000  1.0
  H  H77  1  0.49880000  0.30890000  0.93150000  1.0
  H  H78  1  0.15590000  0.49910000  0.26520000  1.0
  H  H79  1  0.74610000  0.81590000  0.65350000  1.0
  H  H80  1  0.04480000  0.77820000  0.65770000  1.0
  H  H81  1  0.04170000  0.04250000  0.38180000  1.0
  H  H82  1  0.86060000  0.10930000  0.15610000  1.0
  H  H83  1  0.49700000  0.21610000  0.54550000  1.0
  H  H84  1  0.04520000  0.32220000  0.63190000  1.0
  H  H85  1  0.01660000  0.91510000  0.36910000  1.0
  H  H86  1  0.96240000  0.28680000  0.45310000  1.0
  H  H87  1  0.13940000  0.89070000  0.84390000  1.0
  H  H88  1  0.34410000  0.50090000  0.76520000  1.0
  H  H89  1  0.45830000  0.95750000  0.88180000  1.0
  H  H90  1  0.48710000  0.48790000  0.85830000  1.0
  H  H91  1  0.63940000  0.89070000  0.65610000  1.0
  H  H92  1  0.66430000  0.68520000  0.36850000  1.0
  H  H93  1  0.33830000  0.47560000  0.24280000  1.0
  H  H94  1  0.35790000  0.83630000  0.04920000  1.0
  H  H95  1  0.89720000  0.30230000  0.33400000  1.0
  H  H96  1  0.27670000  0.82670000  0.32340000  1.0
  H  H97  1  0.60280000  0.69770000  0.83400000  1.0
  H  H98  1  0.81890000  0.13610000  0.04610000  1.0
  H  H99  1  0.49040000  0.95700000  0.28100000  1.0
  H  H100  1  0.18260000  0.17410000  0.61330000  1.0
  H  H101  1  0.80060000  0.42010000  0.38810000  1.0
  H  H102  1  0.26680000  0.33250000  0.43270000  1.0
  H  H103  1  0.25330000  0.48580000  0.63860000  1.0
  H  H104  1  0.45520000  0.22180000  0.15770000  1.0
  H  H105  1  0.50960000  0.04300000  0.71900000  1.0
  H  H106  1  0.39720000  0.30230000  0.16600000  1.0
  H  H107  1  0.38540000  0.19700000  0.49950000  1.0
  H  H108  1  0.49870000  0.73870000  0.00720000  1.0
  H  H109  1  0.81740000  0.82590000  0.38670000  1.0
  H  H110  1  0.50120000  0.69110000  0.06850000  1.0
  H  H111  1  0.31890000  0.13610000  0.45390000  1.0
  H  H112  1  0.68140000  0.36660000  0.10400000  1.0
  H  H113  1  0.71250000  0.41260000  0.20430000  1.0
  H  H114  1  0.83570000  0.31480000  0.86850000  1.0
  H  H115  1  0.63870000  0.06340000  0.20830000  1.0
  H  H116  1  0.45480000  0.67780000  0.13190000  1.0
  H  H117  1  0.88740000  0.37940000  0.28260000  1.0
  H  H118  1  0.98340000  0.08490000  0.63090000  1.0
  H  H119  1  0.51290000  0.51210000  0.14170000  1.0
  H  H120  1  0.88540000  0.19700000  0.00050000  1.0
  H  H121  1  0.31740000  0.82590000  0.11330000  1.0
  H  H122  1  0.75330000  0.48580000  0.86140000  1.0
  H  H123  1  0.16430000  0.68520000  0.13150000  1.0
  H  H124  1  0.99700000  0.21610000  0.95450000  1.0
  H  H125  1  0.91410000  0.86720000  0.57920000  1.0
  H  H126  1  0.25390000  0.18410000  0.34650000  1.0
  H  H127  1  0.81860000  0.63340000  0.60400000  1.0
  H  H128  1  0.41410000  0.86720000  0.92080000  1.0
  H  H129  1  0.66170000  0.52440000  0.75720000  1.0
  H  H130  1  0.95370000  0.06020000  0.19190000  1.0
  H  H131  1  0.57180000  0.42750000  0.11080000  1.0
  H  H132  1  0.54310000  0.24320000  0.60710000  1.0
  H  H133  1  0.68260000  0.17410000  0.88670000  1.0
  H  H134  1  0.50300000  0.78390000  0.45450000  1.0
  H  H135  1  0.11260000  0.62060000  0.71740000  1.0
  H  H136  1  0.22330000  0.17330000  0.82340000  1.0
  H  H137  1  0.73320000  0.66750000  0.56730000  1.0
  H  H138  1  0.86130000  0.93660000  0.70830000  1.0
  H  H139  1  0.61260000  0.62060000  0.78260000  1.0
  H  H140  1  0.99870000  0.73870000  0.49280000  1.0
  H  H141  1  0.08590000  0.13280000  0.42080000  1.0
  H  H142  1  0.38740000  0.37940000  0.21740000  1.0
  H  H143  1  0.25110000  0.92780000  0.35710000  1.0
  H  H144  1  0.19940000  0.57990000  0.61190000  1.0
  H  H145  1  0.58590000  0.13280000  0.07920000  1.0
  H  H146  1  0.92820000  0.57250000  0.61080000  1.0
  H  H147  1  0.00960000  0.04300000  0.78100000  1.0
  H  H148  1  0.31860000  0.63340000  0.89600000  1.0
  H  H149  1  0.42820000  0.57250000  0.88920000  1.0
  H  H150  1  0.18140000  0.36660000  0.39600000  1.0
  H  H151  1  0.32600000  0.03140000  0.75550000  1.0
  C  C152  1  0.02150000  0.74260000  0.56627000  1.0
  C  C153  1  0.60020000  0.68190000  0.88930000  1.0
  C  C154  1  0.04570000  0.57410000  0.28864000  1.0
  C  C155  1  0.02830000  0.70840000  0.16695000  1.0
  C  C156  1  0.97070000  0.79030000  0.55596000  1.0
  C  C157  1  0.35460000  0.74450000  0.17058000  1.0
  C  C158  1  0.53780000  0.28240000  0.92290000  1.0
  C  C159  1  0.61850000  0.24790000  0.87096000  1.0
  C  C160  1  0.83100000  0.46460000  0.28368000  1.0
  C  C161  1  0.43970000  0.95120000  0.29500000  1.0
  C  C162  1  0.84790000  0.39070000  0.33880000  1.0
  C  C163  1  0.29050000  0.50740000  0.19308000  1.0
  C  C164  1  0.56510000  0.86950000  0.17605000  1.0
  C  C165  1  0.70530000  0.92840000  0.61340000  1.0
  C  C166  1  0.40340000  0.81600000  0.27692000  1.0
  C  C167  1  0.54570000  0.57410000  0.21136000  1.0
  C  C168  1  0.73380000  0.42570000  0.79113000  1.0
  C  C169  1  0.47850000  0.25740000  0.06627000  1.0
  C  C170  1  0.64780000  0.99720000  0.66260000  1.0
  C  C171  1  0.27220000  0.28600000  0.42390000  1.0
  C  C172  1  0.93590000  0.71060000  0.38473000  1.0
  C  C173  1  0.45300000  0.07390000  0.84590000  1.0
  C  C174  1  0.55160000  0.16530000  0.08531000  1.0
  C  C175  1  0.75260000  0.26460000  0.11470000  1.0
  C  C176  1  0.43260000  0.76250000  0.05133000  1.0
  C  C177  1  0.72060000  0.31070000  0.14410000  1.0
  C  C178  1  0.64120000  0.95750000  0.22191000  1.0
  C  C179  1  0.56030000  0.04880000  0.70500000  1.0
  C  C180  1  0.79970000  0.23830000  0.05110000  1.0
  C  C181  1  0.06740000  0.23750000  0.55133000  1.0
  C  C182  1  0.89980000  0.31810000  0.38930000  1.0
  C  C183  1  0.37960000  0.98600000  0.80000000  1.0
  C  C184  1  0.36000000  0.40740000  0.20147000  1.0
  C  C185  1  0.47350000  0.21870000  0.13214000  1.0
  C  C186  1  0.31440000  0.87340000  0.32100000  1.0
  C  C187  1  0.74740000  0.73540000  0.61470000  1.0
  C  C188  1  0.19540000  0.83020000  0.93630000  1.0
  C  C189  1  0.56740000  0.20280000  0.01730000  1.0
  C  C190  1  0.59660000  0.18400000  0.72308000  1.0
  C  C191  1  0.94840000  0.83470000  0.58531000  1.0
  C  C192  1  0.05650000  0.72110000  0.12649000  1.0
  C  C193  1  0.68130000  0.73340000  0.51070000  1.0
  C  C194  1  0.53530000  0.76210000  0.43760000  1.0
  C  C195  1  0.11550000  0.11850000  0.79770000  1.0
  C  C196  1  0.36540000  0.17490000  0.76799000  1.0
  C  C197  1  0.63080000  0.70400000  0.38620000  1.0
  C  C198  1  0.86000000  0.40740000  0.29853000  1.0
  C  C199  1  0.80460000  0.16980000  0.06370000  1.0
  C  C200  1  0.21130000  0.85050000  0.89820000  1.0
  C  C201  1  0.04900000  0.73670000  0.60337000  1.0
  C  C202  1  0.62190000  0.19590000  0.93440000  1.0
  C  C203  1  0.32680000  0.56630000  0.80870000  1.0
  C  C204  1  0.66900000  0.53540000  0.78368000  1.0
  C  C205  1  0.54500000  0.12080000  0.15470000  1.0
  C  C206  1  0.91880000  0.48270000  0.69194000  1.0
  C  C207  1  0.26620000  0.57430000  0.20887000  1.0
  C  C208  1  0.34380000  0.28590000  0.57570000  1.0
  C  C209  1  0.47070000  0.79030000  0.94404000  1.0
  C  C210  1  0.35090000  0.58740000  0.84670000  1.0
  C  C211  1  0.50910000  0.74790000  0.40040000  1.0
  C  C212  1  0.91050000  0.55750000  0.63610000  1.0
  C  C213  1  0.85410000  0.79770000  0.39589000  1.0
  C  C214  1  0.45500000  0.87920000  0.84530000  1.0
  C  C215  1  0.29880000  0.93420000  0.34100000  1.0
  C  C216  1  0.38150000  0.75210000  0.12904000  1.0
  C  C217  1  0.14540000  0.25550000  0.67058000  1.0
  C  C218  1  0.00910000  0.74790000  0.09960000  1.0
  C  C219  1  0.14590000  0.20230000  0.60411000  1.0
  C  C220  1  0.52150000  0.74260000  0.93373000  1.0
  C  C221  1  0.03780000  0.28240000  0.57710000  1.0
  C  C222  1  0.64000000  0.59260000  0.79853000  1.0
  C  C223  1  0.22310000  0.51180000  0.65430000  1.0
  C  C224  1  0.95100000  0.26330000  0.39663000  1.0
  C  C225  1  0.94350000  0.27890000  0.87351000  1.0
  C  C226  1  0.43260000  0.79720000  0.98270000  1.0
  C  C227  1  0.06030000  0.04880000  0.79500000  1.0
  C  C228  1  0.70950000  0.49260000  0.80692000  1.0
  C  C229  1  0.84380000  0.28590000  0.92430000  1.0
  C  C230  1  0.28870000  0.14950000  0.39820000  1.0
  C  C231  1  0.69230000  0.56910000  0.86160000  1.0
  C  C232  1  0.58950000  0.44250000  0.13610000  1.0
  C  C233  1  0.95500000  0.87920000  0.65470000  1.0
  C  C234  1  0.78870000  0.14950000  0.10180000  1.0
  C  C235  1  0.41880000  0.48270000  0.80806000  1.0
  C  C236  1  0.85880000  0.04250000  0.72191000  1.0
  C  C237  1  0.41050000  0.55750000  0.86390000  1.0
  C  C238  1  0.79880000  0.93420000  0.15900000  1.0
  C  C239  1  0.77690000  0.48820000  0.34570000  1.0
  C  C240  1  0.47170000  0.29160000  0.66695000  1.0
  C  C241  1  0.26350000  0.19750000  0.37260000  1.0
  C  C242  1  0.08950000  0.44250000  0.36390000  1.0
  C  C243  1  0.65210000  0.60930000  0.83880000  1.0
  C  C244  1  0.86540000  0.17490000  0.73201000  1.0
  C  C245  1  0.52410000  0.16860000  0.12266000  1.0
  C  C246  1  0.39340000  0.25460000  0.54950000  1.0
  C  C247  1  0.56740000  0.23750000  0.94867000  1.0
  C  C248  1  0.35410000  0.79770000  0.10411000  1.0
  C  C249  1  0.72780000  0.71400000  0.57610000  1.0
  C  C250  1  0.76620000  0.57430000  0.29113000  1.0
  C  C251  1  0.14120000  0.95750000  0.27809000  1.0
  C  C252  1  0.24740000  0.73540000  0.88530000  1.0
  C  C253  1  0.06740000  0.20280000  0.48270000  1.0
  C  C254  1  0.77940000  0.68930000  0.64410000  1.0
  C  C255  1  0.19230000  0.56910000  0.63840000  1.0
  C  C256  1  0.72310000  0.51180000  0.84570000  1.0
  C  C257  1  0.31870000  0.26660000  0.48930000  1.0
  C  C258  1  0.20950000  0.49260000  0.69308000  1.0
  C  C259  1  0.45430000  0.42590000  0.78864000  1.0
  C  C260  1  0.27690000  0.48820000  0.15430000  1.0
  C  C261  1  0.29470000  0.07160000  0.38660000  1.0
  C  C262  1  0.23380000  0.42570000  0.70887000  1.0
  C  C263  1  0.87810000  0.80410000  0.43440000  1.0
  C  C264  1  0.38450000  0.88150000  0.29770000  1.0
  C  C265  1  0.82680000  0.56630000  0.69130000  1.0
  C  C266  1  0.15210000  0.60930000  0.66120000  1.0
  C  C267  1  0.18130000  0.73340000  0.98930000  1.0
  C  C268  1  0.54900000  0.73670000  0.89663000  1.0
  C  C269  1  0.88150000  0.75210000  0.37096000  1.0
  C  C270  1  0.79470000  0.07160000  0.11340000  1.0
  C  C271  1  0.86920000  0.29600000  0.88620000  1.0
  C  C272  1  0.23650000  0.80250000  0.87260000  1.0
  C  C273  1  0.80770000  0.43090000  0.36160000  1.0
  C  C274  1  0.58120000  0.51730000  0.19194000  1.0
  C  C275  1  0.13080000  0.70400000  0.11380000  1.0
  C  C276  1  0.44540000  0.50680000  0.84577000  1.0
  C  C277  1  0.08120000  0.51730000  0.30806000  1.0
  C  C278  1  0.33100000  0.46460000  0.21632000  1.0
  C  C279  1  0.60660000  0.74540000  0.45050000  1.0
  C  C280  1  0.22060000  0.31070000  0.35590000  1.0
  C  C281  1  0.95300000  0.07390000  0.65410000  1.0
  C  C282  1  0.96220000  0.71760000  0.42290000  1.0
  C  C283  1  0.36920000  0.29600000  0.61380000  1.0
  C  C284  1  0.57980000  0.98770000  0.68710000  1.0
  C  C285  1  0.92650000  0.00130000  0.66632000  1.0
  C  C286  1  0.17320000  0.43370000  0.30870000  1.0
  C  C287  1  0.88800000  0.11590000  0.70946000  1.0
  C  C288  1  0.63460000  0.82510000  0.23201000  1.0
  C  C289  1  0.87960000  0.98600000  0.70000000  1.0
  C  C290  1  0.10020000  0.68190000  0.61070000  1.0
  C  C291  1  0.63900000  0.48520000  0.20940000  1.0
  C  C292  1  0.20530000  0.92840000  0.88660000  1.0
  C  C293  1  0.43490000  0.13050000  0.82395000  1.0
  C  C294  1  0.14780000  0.99720000  0.83740000  1.0
  C  C295  1  0.44350000  0.27890000  0.62649000  1.0
  C  C296  1  0.67320000  0.43370000  0.19130000  1.0
  C  C297  1  0.56410000  0.28940000  0.88473000  1.0
  C  C298  1  0.52650000  0.78130000  0.86786000  1.0
  C  C299  1  0.65620000  0.71410000  0.42430000  1.0
  C  C300  1  0.42020000  0.01230000  0.31290000  1.0
  C  C301  1  0.94540000  0.50680000  0.65423000  1.0
  C  C302  1  0.61200000  0.88410000  0.20946000  1.0
  C  C303  1  0.37810000  0.80410000  0.06560000  1.0
  C  C304  1  0.06410000  0.28940000  0.61527000  1.0
  C  C305  1  0.04700000  0.92610000  0.34590000  1.0
  C  C306  1  0.35220000  0.00280000  0.33740000  1.0
  C  C307  1  0.09660000  0.18400000  0.77692000  1.0
  C  C308  1  0.93490000  0.13050000  0.67605000  1.0
  C  C309  1  0.14910000  0.41260000  0.34670000  1.0
  C  C310  1  0.34790000  0.39070000  0.16120000  1.0
  C  C311  1  0.02930000  0.20970000  0.44404000  1.0
  C  C312  1  0.92020000  0.01230000  0.18710000  1.0
  C  C313  1  0.39980000  0.31810000  0.11070000  1.0
  C  C314  1  0.49090000  0.25210000  0.59960000  1.0
  C  C315  1  0.13460000  0.82510000  0.26799000  1.0
  C  C316  1  0.42650000  0.00130000  0.83368000  1.0
  C  C317  1  0.62040000  0.01400000  0.20000000  1.0
  C  C318  1  0.89340000  0.25460000  0.95050000  1.0
  C  C319  1  0.27940000  0.68930000  0.85590000  1.0
  C  C320  1  0.88450000  0.88150000  0.20230000  1.0
  C  C321  1  0.02410000  0.16860000  0.37734000  1.0
  C  C322  1  0.15620000  0.71410000  0.07570000  1.0
  C  C323  1  0.54700000  0.92610000  0.15410000  1.0
  C  C324  1  0.77220000  0.28600000  0.07610000  1.0
  C  C325  1  0.52830000  0.70840000  0.33305000  1.0
  C  C326  1  0.11850000  0.24790000  0.62904000  1.0
  C  C327  1  0.93260000  0.79720000  0.51730000  1.0
  C  C328  1  0.61550000  0.11850000  0.70230000  1.0
  C  C329  1  0.68560000  0.12660000  0.67900000  1.0
  C  C330  1  0.55650000  0.72110000  0.37351000  1.0
  C  C331  1  0.47590000  0.83140000  0.87734000  1.0
  C  C332  1  0.02650000  0.78130000  0.63214000  1.0
  C  C333  1  0.46470000  0.23790000  0.56240000  1.0
  C  C334  1  0.95430000  0.42590000  0.71136000  1.0
  C  C335  1  0.29970000  0.23830000  0.44890000  1.0
  C  C336  1  0.73650000  0.80250000  0.62740000  1.0
  C  C337  1  0.12190000  0.19590000  0.56560000  1.0
  C  C338  1  0.43590000  0.71060000  0.11527000  1.0
  C  C339  1  0.69540000  0.83020000  0.56370000  1.0
  C  C340  1  0.52930000  0.20970000  0.05596000  1.0
  C  C341  1  0.79050000  0.50740000  0.30692000  1.0
  C  C342  1  0.46220000  0.71760000  0.07710000  1.0
  C  C343  1  0.30460000  0.16980000  0.43630000  1.0
  C  C344  1  0.71130000  0.85050000  0.60180000  1.0
  C  C345  1  0.04500000  0.12080000  0.34530000  1.0
  C  C346  1  0.81440000  0.87340000  0.17900000  1.0
  C  C347  1  0.70120000  0.06580000  0.65900000  1.0
  C  C348  1  0.06510000  0.86950000  0.32395000  1.0
  C  C349  1  0.10660000  0.74540000  0.04950000  1.0
  C  C350  1  0.85090000  0.58740000  0.65330000  1.0
  C  C351  1  0.85220000  0.00280000  0.16260000  1.0
  C  C352  1  0.36100000  0.51480000  0.79060000  1.0
  C  C353  1  0.30770000  0.43090000  0.13840000  1.0
  C  C354  1  0.18560000  0.12660000  0.82100000  1.0
  C  C355  1  0.16900000  0.53540000  0.71632000  1.0
  C  C356  1  0.07350000  0.99870000  0.33368000  1.0
  C  C357  1  0.35880000  0.04250000  0.77809000  1.0
  C  C358  1  0.22780000  0.71400000  0.92390000  1.0
  C  C359  1  0.97850000  0.25740000  0.43373000  1.0
  C  C360  1  0.11200000  0.88410000  0.29054000  1.0
  C  C361  1  0.44840000  0.83470000  0.91469000  1.0
  C  C362  1  0.90340000  0.81600000  0.22308000  1.0
  C  C363  1  0.05160000  0.16530000  0.41469000  1.0
  C  C364  1  0.86100000  0.51480000  0.70940000  1.0
  C  C365  1  0.14000000  0.59260000  0.70147000  1.0
  C  C366  1  0.93970000  0.95120000  0.20500000  1.0
  C  C367  1  0.20030000  0.76170000  0.94890000  1.0
  C  C368  1  0.38800000  0.11590000  0.79054000  1.0
  C  C369  1  0.64590000  0.20230000  0.89589000  1.0
  C  C370  1  0.70030000  0.76170000  0.55110000  1.0
  C  C371  1  0.57350000  0.99870000  0.16632000  1.0
  C  C372  1  0.99090000  0.25210000  0.90040000  1.0
  C  C373  1  0.20120000  0.06580000  0.84100000  1.0
  C  C374  1  0.93260000  0.76250000  0.44867000  1.0
  C  C375  1  0.64540000  0.25550000  0.82942000  1.0
  C  C376  1  0.12040000  0.01400000  0.30000000  1.0
  C  C377  1  0.76350000  0.19750000  0.12740000  1.0
  C  C378  1  0.13900000  0.48520000  0.29060000  1.0
  C  C379  1  0.97350000  0.21870000  0.36786000  1.0
  C  C380  1  0.25260000  0.26460000  0.38530000  1.0
  C  C381  1  0.05460000  0.49320000  0.34577000  1.0
  C  C382  1  0.97170000  0.29160000  0.83305000  1.0
  C  C383  1  0.45100000  0.26330000  0.10337000  1.0
  C  C384  1  0.81870000  0.26660000  0.01070000  1.0
  C  C385  1  0.97590000  0.83140000  0.62266000  1.0
  C  C386  1  0.96470000  0.23790000  0.93760000  1.0
  C  C387  1  0.03530000  0.76210000  0.06240000  1.0
  C  C388  1  0.07980000  0.98770000  0.81290000  1.0
  C  C389  1  0.55460000  0.49320000  0.15423000  1.0
  C  C390  1  0.85460000  0.74450000  0.32942000  1.0
  C  C391  1  0.64910000  0.41260000  0.15330000  1.0
  N  N392  1  0.86700000  0.23430000  0.98972000  1.0
  N  N393  1  0.31580000  0.63680000  0.87010000  1.0
  N  N394  1  0.68420000  0.36320000  0.12990000  1.0
  N  N395  1  0.36700000  0.23430000  0.51028000  1.0
  N  N396  1  0.88450000  0.33260000  0.35208000  1.0
  N  N397  1  0.63300000  0.76570000  0.48972000  1.0
  N  N398  1  0.11550000  0.66740000  0.64792000  1.0
  N  N399  1  0.54140000  0.23680000  0.98756000  1.0
  N  N400  1  0.95860000  0.76320000  0.48756000  1.0
  N  N401  1  0.61550000  0.66740000  0.85208000  1.0
  N  N402  1  0.83760000  0.06590000  0.14432000  1.0
  N  N403  1  0.33760000  0.06590000  0.35568000  1.0
  N  N404  1  0.45860000  0.76320000  0.01244000  1.0
  N  N405  1  0.05240000  0.05390000  0.35672000  1.0
  N  N406  1  0.44760000  0.94610000  0.85672000  1.0
  N  N407  1  0.94760000  0.94610000  0.64328000  1.0
  N  N408  1  0.13300000  0.76570000  0.01028000  1.0
  N  N409  1  0.16240000  0.93410000  0.85568000  1.0
  N  N410  1  0.55240000  0.05390000  0.14328000  1.0
  N  N411  1  0.04140000  0.23680000  0.51244000  1.0
  N  N412  1  0.18420000  0.36320000  0.37010000  1.0
  N  N413  1  0.81580000  0.63680000  0.62990000  1.0
  N  N414  1  0.38450000  0.33260000  0.14792000  1.0
  N  N415  1  0.66240000  0.93410000  0.64432000  1.0
  O  O416  1  0.40170000  0.71910000  0.19305000  1.0
  O  O417  1  0.78580000  0.31680000  0.99840000  1.0
  O  O418  1  0.08010000  0.70220000  0.19372000  1.0
  O  O419  1  0.54950000  0.29680000  0.67417000  1.0
  O  O420  1  0.26250000  0.01690000  0.40650000  1.0
  O  O421  1  0.55460000  0.14430000  0.18740000  1.0
  O  O422  1  0.58040000  0.60300000  0.24317000  1.0
  O  O423  1  0.52090000  0.18180000  0.73279000  1.0
  O  O424  1  0.45050000  0.70320000  0.32583000  1.0
  O  O425  1  0.47910000  0.81820000  0.26721000  1.0
  O  O426  1  0.71420000  0.68320000  0.49840000  1.0
  O  O427  1  0.04950000  0.29680000  0.82583000  1.0
  O  O428  1  0.59830000  0.28090000  0.80695000  1.0
  O  O429  1  0.69910000  0.39530000  0.76010000  1.0
  O  O430  1  0.09830000  0.28090000  0.69305000  1.0
  O  O431  1  0.62730000  0.65260000  0.91642000  1.0
  O  O432  1  0.98550000  0.59580000  0.30306000  1.0
  O  O433  1  0.88360000  0.83610000  0.51347000  1.0
  O  O434  1  0.30770000  0.16210000  0.74361000  1.0
  O  O435  1  0.61640000  0.16390000  0.01347000  1.0
  O  O436  1  0.21060000  0.23570000  0.68022000  1.0
  O  O437  1  0.22980000  0.30070000  0.32076000  1.0
  O  O438  1  0.11640000  0.16390000  0.48653000  1.0
  O  O439  1  0.02090000  0.18180000  0.76721000  1.0
  O  O440  1  0.41960000  0.39700000  0.75683000  1.0
  O  O441  1  0.71110000  0.59780000  0.30841000  1.0
  O  O442  1  0.97910000  0.81820000  0.23279000  1.0
  O  O443  1  0.94540000  0.85570000  0.68740000  1.0
  O  O444  1  0.08040000  0.60300000  0.25683000  1.0
  O  O445  1  0.12730000  0.65260000  0.58358000  1.0
  O  O446  1  0.91990000  0.29780000  0.80628000  1.0
  O  O447  1  0.27020000  0.69930000  0.82076000  1.0
  O  O448  1  0.48550000  0.59580000  0.19694000  1.0
  O  O449  1  0.23750000  0.98310000  0.90650000  1.0
  O  O450  1  0.72980000  0.30070000  0.17924000  1.0
  O  O451  1  0.37270000  0.34740000  0.08358000  1.0
  O  O452  1  0.80770000  0.16210000  0.75639000  1.0
  O  O453  1  0.73750000  0.98310000  0.59350000  1.0
  O  O454  1  0.51450000  0.40420000  0.80306000  1.0
  O  O455  1  0.28580000  0.31680000  0.50160000  1.0
  O  O456  1  0.84380000  0.76040000  0.23003000  1.0
  O  O457  1  0.28940000  0.76430000  0.18022000  1.0
  O  O458  1  0.78890000  0.40220000  0.80841000  1.0
  O  O459  1  0.30090000  0.60470000  0.23990000  1.0
  O  O460  1  0.19910000  0.39530000  0.73990000  1.0
  O  O461  1  0.95050000  0.70320000  0.17417000  1.0
  O  O462  1  0.40550000  0.24370000  0.77448000  1.0
  O  O463  1  0.78940000  0.76430000  0.31978000  1.0
  O  O464  1  0.01450000  0.40420000  0.69694000  1.0
  O  O465  1  0.28890000  0.40220000  0.69159000  1.0
  O  O466  1  0.38360000  0.83610000  0.98653000  1.0
  O  O467  1  0.69230000  0.83790000  0.25639000  1.0
  O  O468  1  0.71060000  0.23570000  0.81978000  1.0
  O  O469  1  0.90550000  0.24370000  0.72552000  1.0
  O  O470  1  0.41990000  0.29780000  0.69372000  1.0
  O  O471  1  0.44540000  0.85570000  0.81260000  1.0
  O  O472  1  0.58010000  0.70220000  0.30628000  1.0
  O  O473  1  0.87270000  0.34740000  0.41642000  1.0
  O  O474  1  0.90170000  0.71910000  0.30695000  1.0
  O  O475  1  0.59450000  0.75630000  0.22552000  1.0
  O  O476  1  0.80090000  0.60470000  0.26010000  1.0
  O  O477  1  0.65620000  0.23960000  0.73003000  1.0
  O  O478  1  0.77020000  0.69930000  0.67924000  1.0
  O  O479  1  0.19230000  0.83790000  0.24361000  1.0
  O  O480  1  0.09450000  0.75630000  0.27448000  1.0
  O  O481  1  0.91960000  0.39700000  0.74317000  1.0
  O  O482  1  0.05460000  0.14430000  0.31260000  1.0
  O  O483  1  0.76250000  0.01690000  0.09350000  1.0
  O  O484  1  0.21420000  0.68320000  0.00160000  1.0
  O  O485  1  0.15620000  0.23960000  0.76997000  1.0
  O  O486  1  0.34380000  0.76040000  0.26997000  1.0
  O  O487  1  0.21110000  0.59780000  0.19159000  1.0
