# generated using pymatgen
data_CdH10(C3O)6
_symmetry_space_group_name_H-M   'P 1'
_cell_length_a   10.61870000
_cell_length_b   15.77700000
_cell_length_c   18.95800000
_cell_angle_alpha   97.35900000
_cell_angle_beta   90.00000000
_cell_angle_gamma   90.00000000
_symmetry_Int_Tables_number   1
_chemical_formula_structural   CdH10(C3O)6
_chemical_formula_sum   'Cd6 H60 C108 O36'
_cell_volume   3149.89610528
_cell_formula_units_Z   6
loop_
 _symmetry_equiv_pos_site_id
 _symmetry_equiv_pos_as_xyz
  1  'x, y, z'
loop_
 _atom_site_type_symbol
 _atom_site_label
 _atom_site_symmetry_multiplicity
 _atom_site_fract_x
 _atom_site_fract_y
 _atom_site_fract_z
 _atom_site_occupancy
  Cd  Cd0  1  0.57917000  0.95804000  0.57373000  1.0
  Cd  Cd1  1  0.42083000  0.04196000  0.42627000  1.0
  Cd  Cd2  1  0.57917000  0.04196000  0.92627000  1.0
  Cd  Cd3  1  0.48533000  0.00000000  0.75000000  1.0
  Cd  Cd4  1  0.51467000  0.00000000  0.25000000  1.0
  Cd  Cd5  1  0.42083000  0.95804000  0.07373000  1.0
  H  H6  1  0.34810000  0.34690000  0.76150000  1.0
  H  H7  1  0.16000000  0.81420000  0.71780000  1.0
  H  H8  1  0.87260000  0.67590000  0.98780000  1.0
  H  H9  1  0.80800000  0.32850000  0.06640000  1.0
  H  H10  1  0.12740000  0.32410000  0.01220000  1.0
  H  H11  1  0.70050000  0.20350000  0.03430000  1.0
  H  H12  1  0.29950000  0.20350000  0.53430000  1.0
  H  H13  1  0.19200000  0.67150000  0.93360000  1.0
  H  H14  1  0.65190000  0.65310000  0.23850000  1.0
  H  H15  1  0.78030000  0.78140000  0.87740000  1.0
  H  H16  1  0.16000000  0.18580000  0.78220000  1.0
  H  H17  1  0.00430000  0.29000000  0.81110000  1.0
  H  H18  1  0.70050000  0.79650000  0.46570000  1.0
  H  H19  1  0.79230000  0.51640000  0.58650000  1.0
  H  H20  1  0.98840000  0.35110000  0.69110000  1.0
  H  H21  1  0.68970000  0.31630000  0.85800000  1.0
  H  H22  1  0.20770000  0.48360000  0.41350000  1.0
  H  H23  1  0.19200000  0.32850000  0.56640000  1.0
  H  H24  1  0.12740000  0.67590000  0.48780000  1.0
  H  H25  1  0.72290000  0.58650000  0.72470000  1.0
  H  H26  1  0.20770000  0.51640000  0.08650000  1.0
  H  H27  1  0.21970000  0.21860000  0.12260000  1.0
  H  H28  1  0.54690000  0.21860000  0.22870000  1.0
  H  H29  1  0.73150000  0.78660000  0.01380000  1.0
  H  H30  1  0.27710000  0.41350000  0.27530000  1.0
  H  H31  1  0.01160000  0.35110000  0.19110000  1.0
  H  H32  1  0.74120000  0.87780000  0.79760000  1.0
  H  H33  1  0.16370000  0.55430000  0.62510000  1.0
  H  H34  1  0.73150000  0.21340000  0.48620000  1.0
  H  H35  1  0.54690000  0.78140000  0.27130000  1.0
  H  H36  1  0.72290000  0.41350000  0.77530000  1.0
  H  H37  1  0.26850000  0.21340000  0.98620000  1.0
  H  H38  1  0.21970000  0.78140000  0.37740000  1.0
  H  H39  1  0.78030000  0.21860000  0.62260000  1.0
  H  H40  1  0.80800000  0.67150000  0.43360000  1.0
  H  H41  1  0.84000000  0.18580000  0.28220000  1.0
  H  H42  1  0.99570000  0.29000000  0.31110000  1.0
  H  H43  1  0.25880000  0.87780000  0.29760000  1.0
  H  H44  1  0.31030000  0.31630000  0.35800000  1.0
  H  H45  1  0.45310000  0.78140000  0.77130000  1.0
  H  H46  1  0.83630000  0.44570000  0.37490000  1.0
  H  H47  1  0.68970000  0.68370000  0.64200000  1.0
  H  H48  1  0.99570000  0.71000000  0.18890000  1.0
  H  H49  1  0.29950000  0.79650000  0.96570000  1.0
  H  H50  1  0.25880000  0.12220000  0.20240000  1.0
  H  H51  1  0.01160000  0.64890000  0.30890000  1.0
  H  H52  1  0.16370000  0.44570000  0.87490000  1.0
  H  H53  1  0.87260000  0.32410000  0.51220000  1.0
  H  H54  1  0.34810000  0.65310000  0.73850000  1.0
  H  H55  1  0.79230000  0.48360000  0.91350000  1.0
  H  H56  1  0.31030000  0.68370000  0.14200000  1.0
  H  H57  1  0.83630000  0.55430000  0.12510000  1.0
  H  H58  1  0.98840000  0.64890000  0.80890000  1.0
  H  H59  1  0.74120000  0.12220000  0.70240000  1.0
  H  H60  1  0.27710000  0.58650000  0.22470000  1.0
  H  H61  1  0.00430000  0.71000000  0.68890000  1.0
  H  H62  1  0.84000000  0.81420000  0.21780000  1.0
  H  H63  1  0.65190000  0.34690000  0.26150000  1.0
  H  H64  1  0.45310000  0.21860000  0.72870000  1.0
  H  H65  1  0.26850000  0.78660000  0.51380000  1.0
  C  C66  1  0.05070000  0.68430000  0.58560000  1.0
  C  C67  1  0.12600000  0.42690000  0.13930000  1.0
  C  C68  1  0.86890000  0.29460000  0.46650000  1.0
  C  C69  1  0.70850000  0.79020000  0.71290000  1.0
  C  C70  1  0.05070000  0.31570000  0.91440000  1.0
  C  C71  1  0.02320000  0.45400000  0.39740000  1.0
  C  C72  1  0.67310000  0.85130000  0.66210000  1.0
  C  C73  1  0.32630000  0.12030000  0.86470000  1.0
  C  C74  1  0.54600000  0.88520000  0.39120000  1.0
  C  C75  1  0.13110000  0.70540000  0.53350000  1.0
  C  C76  1  0.86730000  0.49950000  0.60590000  1.0
  C  C77  1  0.75570000  0.69370000  0.40120000  1.0
  C  C78  1  0.77170000  0.18830000  0.38280000  1.0
  C  C79  1  0.72590000  0.64500000  0.73920000  1.0
  C  C80  1  0.21720000  0.22950000  0.95040000  1.0
  C  C81  1  0.24430000  0.69370000  0.90120000  1.0
  C  C82  1  0.38670000  0.19570000  0.62820000  1.0
  C  C83  1  0.29480000  0.70340000  0.18960000  1.0
  C  C84  1  0.54600000  0.11480000  0.10880000  1.0
  C  C85  1  0.25930000  0.34830000  0.66740000  1.0
  C  C86  1  0.98560000  0.39970000  0.66810000  1.0
  C  C87  1  0.87400000  0.57310000  0.86070000  1.0
  C  C88  1  0.70850000  0.20980000  0.78710000  1.0
  C  C89  1  0.33760000  0.31730000  0.71620000  1.0
  C  C90  1  0.70520000  0.70340000  0.68960000  1.0
  C  C91  1  0.32690000  0.85130000  0.16210000  1.0
  C  C92  1  0.66240000  0.31730000  0.21620000  1.0
  C  C93  1  0.22830000  0.81170000  0.61720000  1.0
  C  C94  1  0.74070000  0.65170000  0.33260000  1.0
  C  C95  1  0.13110000  0.29460000  0.96650000  1.0
  C  C96  1  0.05900000  0.72460000  0.65410000  1.0
  C  C97  1  0.45400000  0.11480000  0.60880000  1.0
  C  C98  1  0.94930000  0.68430000  0.08560000  1.0
  C  C99  1  0.75020000  0.32440000  0.69140000  1.0
  C  C100  1  0.74070000  0.34830000  0.16740000  1.0
  C  C101  1  0.27410000  0.35500000  0.26080000  1.0
  C  C102  1  0.32690000  0.14870000  0.33790000  1.0
  C  C103  1  0.24080000  0.76180000  0.33060000  1.0
  C  C104  1  0.97680000  0.54600000  0.60260000  1.0
  C  C105  1  0.24980000  0.67560000  0.30860000  1.0
  C  C106  1  0.94930000  0.31570000  0.41440000  1.0
  C  C107  1  0.32630000  0.87970000  0.63530000  1.0
  C  C108  1  0.86730000  0.50050000  0.89410000  1.0
  C  C109  1  0.84910000  0.21180000  0.32870000  1.0
  C  C110  1  0.73690000  0.18060000  0.71730000  1.0
  C  C111  1  0.01440000  0.60030000  0.33190000  1.0
  C  C112  1  0.90680000  0.44920000  0.16070000  1.0
  C  C113  1  0.26310000  0.18060000  0.21730000  1.0
  C  C114  1  0.59940000  0.75950000  0.30390000  1.0
  C  C115  1  0.98560000  0.60030000  0.83190000  1.0
  C  C116  1  0.26310000  0.81940000  0.28270000  1.0
  C  C117  1  0.61330000  0.19570000  0.12820000  1.0
  C  C118  1  0.29150000  0.79020000  0.21290000  1.0
  C  C119  1  0.75020000  0.67560000  0.80860000  1.0
  C  C120  1  0.70520000  0.29660000  0.81040000  1.0
  C  C121  1  0.05900000  0.27540000  0.84590000  1.0
  C  C122  1  0.25930000  0.65170000  0.83260000  1.0
  C  C123  1  0.22830000  0.18830000  0.88280000  1.0
  C  C124  1  0.24980000  0.32440000  0.19140000  1.0
  C  C125  1  0.72590000  0.35500000  0.76080000  1.0
  C  C126  1  0.87400000  0.42690000  0.63930000  1.0
  C  C127  1  0.90680000  0.55080000  0.33930000  1.0
  C  C128  1  0.09120000  0.47790000  0.87110000  1.0
  C  C129  1  0.67370000  0.12030000  0.36470000  1.0
  C  C130  1  0.67370000  0.87970000  0.13530000  1.0
  C  C131  1  0.97680000  0.45400000  0.89740000  1.0
  C  C132  1  0.61330000  0.80430000  0.37180000  1.0
  C  C133  1  0.21720000  0.77050000  0.54960000  1.0
  C  C134  1  0.75920000  0.23820000  0.66940000  1.0
  C  C135  1  0.59940000  0.24050000  0.19610000  1.0
  C  C136  1  0.29150000  0.20980000  0.28710000  1.0
  C  C137  1  0.86890000  0.70540000  0.03350000  1.0
  C  C138  1  0.66240000  0.68270000  0.28380000  1.0
  C  C139  1  0.90880000  0.47790000  0.37110000  1.0
  C  C140  1  0.67310000  0.14870000  0.83790000  1.0
  C  C141  1  0.84910000  0.78820000  0.17130000  1.0
  C  C142  1  0.15090000  0.21180000  0.82870000  1.0
  C  C143  1  0.40060000  0.24050000  0.69610000  1.0
  C  C144  1  0.78280000  0.77050000  0.04960000  1.0
  C  C145  1  0.33760000  0.68270000  0.78380000  1.0
  C  C146  1  0.13270000  0.49950000  0.10590000  1.0
  C  C147  1  0.09120000  0.52210000  0.62890000  1.0
  C  C148  1  0.69170000  0.76850000  0.41970000  1.0
  C  C149  1  0.77170000  0.81170000  0.11720000  1.0
  C  C150  1  0.01440000  0.39970000  0.16810000  1.0
  C  C151  1  0.29480000  0.29660000  0.31040000  1.0
  C  C152  1  0.30830000  0.76850000  0.91970000  1.0
  C  C153  1  0.15090000  0.78820000  0.67130000  1.0
  C  C154  1  0.13270000  0.50050000  0.39410000  1.0
  C  C155  1  0.27410000  0.64500000  0.23920000  1.0
  C  C156  1  0.78280000  0.22950000  0.45040000  1.0
  C  C157  1  0.24080000  0.23820000  0.16940000  1.0
  C  C158  1  0.75570000  0.30630000  0.09880000  1.0
  C  C159  1  0.75920000  0.76180000  0.83060000  1.0
  C  C160  1  0.12600000  0.57310000  0.36070000  1.0
  C  C161  1  0.38670000  0.80430000  0.87180000  1.0
  C  C162  1  0.69170000  0.23150000  0.08030000  1.0
  C  C163  1  0.40060000  0.75950000  0.80390000  1.0
  C  C164  1  0.24430000  0.30630000  0.59880000  1.0
  C  C165  1  0.90880000  0.52210000  0.12890000  1.0
  C  C166  1  0.73690000  0.81940000  0.78270000  1.0
  C  C167  1  0.02320000  0.54600000  0.10260000  1.0
  C  C168  1  0.45400000  0.88520000  0.89120000  1.0
  C  C169  1  0.30830000  0.23150000  0.58030000  1.0
  C  C170  1  0.94100000  0.27540000  0.34590000  1.0
  C  C171  1  0.09320000  0.55080000  0.83930000  1.0
  C  C172  1  0.94100000  0.72460000  0.15410000  1.0
  C  C173  1  0.09320000  0.44920000  0.66070000  1.0
  O  O174  1  0.34610000  0.90650000  0.69950000  1.0
  O  O175  1  0.20590000  0.57190000  0.80960000  1.0
  O  O176  1  0.54220000  0.08150000  0.04470000  1.0
  O  O177  1  0.76120000  0.38200000  0.64190000  1.0
  O  O178  1  0.45780000  0.91850000  0.95530000  1.0
  O  O179  1  0.61640000  0.09410000  0.41770000  1.0
  O  O180  1  0.64830000  0.07060000  0.81270000  1.0
  O  O181  1  0.03770000  0.61870000  0.06810000  1.0
  O  O182  1  0.64830000  0.92940000  0.68730000  1.0
  O  O183  1  0.61640000  0.90590000  0.08230000  1.0
  O  O184  1  0.34610000  0.09350000  0.80050000  1.0
  O  O185  1  0.66500000  0.17210000  0.90330000  1.0
  O  O186  1  0.76120000  0.61800000  0.85810000  1.0
  O  O187  1  0.35170000  0.92940000  0.18730000  1.0
  O  O188  1  0.96230000  0.38130000  0.93190000  1.0
  O  O189  1  0.49480000  0.07720000  0.15570000  1.0
  O  O190  1  0.96230000  0.61870000  0.56810000  1.0
  O  O191  1  0.50520000  0.07720000  0.65570000  1.0
  O  O192  1  0.79410000  0.42810000  0.19040000  1.0
  O  O193  1  0.38360000  0.09410000  0.91770000  1.0
  O  O194  1  0.54220000  0.91850000  0.45530000  1.0
  O  O195  1  0.79410000  0.57190000  0.30960000  1.0
  O  O196  1  0.35170000  0.07060000  0.31270000  1.0
  O  O197  1  0.33500000  0.17210000  0.40330000  1.0
  O  O198  1  0.66500000  0.82790000  0.59670000  1.0
  O  O199  1  0.20590000  0.42810000  0.69040000  1.0
  O  O200  1  0.49480000  0.92280000  0.34430000  1.0
  O  O201  1  0.65390000  0.09350000  0.30050000  1.0
  O  O202  1  0.33500000  0.82790000  0.09670000  1.0
  O  O203  1  0.45780000  0.08150000  0.54470000  1.0
  O  O204  1  0.65390000  0.90650000  0.19950000  1.0
  O  O205  1  0.38360000  0.90590000  0.58230000  1.0
  O  O206  1  0.23880000  0.61800000  0.35810000  1.0
  O  O207  1  0.50520000  0.92280000  0.84430000  1.0
  O  O208  1  0.03770000  0.38130000  0.43190000  1.0
  O  O209  1  0.23880000  0.38200000  0.14190000  1.0
