# generated using pymatgen
data_Mn2H8(C2N)7
_symmetry_space_group_name_H-M   'P 1'
_cell_length_a   7.36200000
_cell_length_b   13.90800000
_cell_length_c   18.01500000
_cell_angle_alpha   90.00000000
_cell_angle_beta   90.00000000
_cell_angle_gamma   90.52000000
_symmetry_Int_Tables_number   1
_chemical_formula_structural   Mn2H8(C2N)7
_chemical_formula_sum   'Mn8 H32 C56 N28'
_cell_volume   1844.49242175
_cell_formula_units_Z   4
loop_
 _symmetry_equiv_pos_site_id
 _symmetry_equiv_pos_as_xyz
  1  'x, y, z'
loop_
 _atom_site_type_symbol
 _atom_site_label
 _atom_site_symmetry_multiplicity
 _atom_site_fract_x
 _atom_site_fract_y
 _atom_site_fract_z
 _atom_site_occupancy
  Mn  Mn0  1  0.10103000  0.92000000  0.68591000  1.0
  Mn  Mn1  1  0.60571000  0.18751000  0.70829000  1.0
  Mn  Mn2  1  0.89897000  0.58000000  0.18591000  1.0
  Mn  Mn3  1  0.39429000  0.31249000  0.20829000  1.0
  Mn  Mn4  1  0.89897000  0.08000000  0.31409000  1.0
  Mn  Mn5  1  0.39429000  0.81249000  0.29171000  1.0
  Mn  Mn6  1  0.10103000  0.42000000  0.81409000  1.0
  Mn  Mn7  1  0.60571000  0.68751000  0.79171000  1.0
  H  H8  1  0.58160000  0.72840000  0.61430000  1.0
  H  H9  1  0.57790000  0.47810000  0.71070000  1.0
  H  H10  1  0.52700000  0.66190000  0.50210000  1.0
  H  H11  1  0.52550000  0.40310000  0.59980000  1.0
  H  H12  1  0.08450000  0.82220000  0.84230000  1.0
  H  H13  1  0.08020000  0.09660000  0.80180000  1.0
  H  H14  1  0.02910000  0.84480000  0.96380000  1.0
  H  H15  1  0.02520000  0.12870000  0.92430000  1.0
  H  H16  1  0.41840000  0.77160000  0.11430000  1.0
  H  H17  1  0.42210000  0.02190000  0.21070000  1.0
  H  H18  1  0.47300000  0.83810000  0.00210000  1.0
  H  H19  1  0.47450000  0.09690000  0.09980000  1.0
  H  H20  1  0.91550000  0.67780000  0.34230000  1.0
  H  H21  1  0.91980000  0.40340000  0.30180000  1.0
  H  H22  1  0.97090000  0.65520000  0.46380000  1.0
  H  H23  1  0.97480000  0.37130000  0.42430000  1.0
  H  H24  1  0.41840000  0.27160000  0.38570000  1.0
  H  H25  1  0.42210000  0.52190000  0.28930000  1.0
  H  H26  1  0.47300000  0.33810000  0.49790000  1.0
  H  H27  1  0.47450000  0.59690000  0.40020000  1.0
  H  H28  1  0.91550000  0.17780000  0.15770000  1.0
  H  H29  1  0.91980000  0.90340000  0.19820000  1.0
  H  H30  1  0.97090000  0.15520000  0.03620000  1.0
  H  H31  1  0.97480000  0.87130000  0.07570000  1.0
  H  H32  1  0.58160000  0.22840000  0.88570000  1.0
  H  H33  1  0.57790000  0.97810000  0.78930000  1.0
  H  H34  1  0.52700000  0.16190000  0.99790000  1.0
  H  H35  1  0.52550000  0.90310000  0.90020000  1.0
  H  H36  1  0.08450000  0.32220000  0.65770000  1.0
  H  H37  1  0.08020000  0.59660000  0.69820000  1.0
  H  H38  1  0.02910000  0.34480000  0.53620000  1.0
  H  H39  1  0.02520000  0.62870000  0.57570000  1.0
  C  C40  1  0.77960000  0.08430000  0.68310000  1.0
  C  C41  1  0.40630000  0.09730000  0.68290000  1.0
  C  C42  1  0.42590000  0.77470000  0.74570000  1.0
  C  C43  1  0.79780000  0.76010000  0.73740000  1.0
  C  C44  1  0.56790000  0.66190000  0.61150000  1.0
  C  C45  1  0.56640000  0.51570000  0.66830000  1.0
  C  C46  1  0.53640000  0.62250000  0.54360000  1.0
  C  C47  1  0.53520000  0.46970000  0.60130000  1.0
  C  C48  1  0.51810000  0.52260000  0.53610000  1.0
  C  C49  1  0.06920000  0.88490000  0.85890000  1.0
  C  C50  1  0.06720000  0.04540000  0.83460000  1.0
  C  C51  1  0.03760000  0.89760000  0.93220000  1.0
  C  C52  1  0.03520000  0.06520000  0.90880000  1.0
  C  C53  1  0.01780000  0.99100000  0.96040000  1.0
  C  C54  1  0.22040000  0.41570000  0.18310000  1.0
  C  C55  1  0.59370000  0.40270000  0.18290000  1.0
  C  C56  1  0.57410000  0.72530000  0.24570000  1.0
  C  C57  1  0.20220000  0.73990000  0.23740000  1.0
  C  C58  1  0.43210000  0.83810000  0.11150000  1.0
  C  C59  1  0.43360000  0.98430000  0.16830000  1.0
  C  C60  1  0.46360000  0.87750000  0.04360000  1.0
  C  C61  1  0.46480000  0.03030000  0.10130000  1.0
  C  C62  1  0.48190000  0.97740000  0.03610000  1.0
  C  C63  1  0.93080000  0.61510000  0.35890000  1.0
  C  C64  1  0.93280000  0.45460000  0.33460000  1.0
  C  C65  1  0.96240000  0.60240000  0.43220000  1.0
  C  C66  1  0.96480000  0.43480000  0.40880000  1.0
  C  C67  1  0.98220000  0.50900000  0.46040000  1.0
  C  C68  1  0.22040000  0.91570000  0.31690000  1.0
  C  C69  1  0.59370000  0.90270000  0.31710000  1.0
  C  C70  1  0.57410000  0.22530000  0.25430000  1.0
  C  C71  1  0.20220000  0.23990000  0.26260000  1.0
  C  C72  1  0.43210000  0.33810000  0.38850000  1.0
  C  C73  1  0.43360000  0.48430000  0.33170000  1.0
  C  C74  1  0.46360000  0.37750000  0.45640000  1.0
  C  C75  1  0.46480000  0.53030000  0.39870000  1.0
  C  C76  1  0.48190000  0.47740000  0.46390000  1.0
  C  C77  1  0.93080000  0.11510000  0.14110000  1.0
  C  C78  1  0.93280000  0.95460000  0.16540000  1.0
  C  C79  1  0.96240000  0.10240000  0.06780000  1.0
  C  C80  1  0.96480000  0.93480000  0.09120000  1.0
  C  C81  1  0.98220000  0.00900000  0.03960000  1.0
  C  C82  1  0.77960000  0.58430000  0.81690000  1.0
  C  C83  1  0.40630000  0.59730000  0.81710000  1.0
  C  C84  1  0.42590000  0.27470000  0.75430000  1.0
  C  C85  1  0.79780000  0.26010000  0.76260000  1.0
  C  C86  1  0.56790000  0.16190000  0.88850000  1.0
  C  C87  1  0.56640000  0.01570000  0.83170000  1.0
  C  C88  1  0.53640000  0.12250000  0.95640000  1.0
  C  C89  1  0.53520000  0.96970000  0.89870000  1.0
  C  C90  1  0.51810000  0.02260000  0.96390000  1.0
  C  C91  1  0.06920000  0.38490000  0.64110000  1.0
  C  C92  1  0.06720000  0.54540000  0.66540000  1.0
  C  C93  1  0.03760000  0.39760000  0.56780000  1.0
  C  C94  1  0.03520000  0.56520000  0.59120000  1.0
  C  C95  1  0.01780000  0.49100000  0.53960000  1.0
  N  N96  1  0.62180000  0.23900000  0.63410000  1.0
  N  N97  1  0.58080000  0.61110000  0.67550000  1.0
  N  N98  1  0.08030000  0.95580000  0.80790000  1.0
  N  N99  1  0.32510000  0.82520000  0.71840000  1.0
  N  N100  1  0.29520000  0.04180000  0.66940000  1.0
  N  N101  1  0.87720000  0.02370000  0.66760000  1.0
  N  N102  1  0.90270000  0.80440000  0.70450000  1.0
  N  N103  1  0.37820000  0.26100000  0.13410000  1.0
  N  N104  1  0.41920000  0.88890000  0.17550000  1.0
  N  N105  1  0.91970000  0.54420000  0.30790000  1.0
  N  N106  1  0.67490000  0.67480000  0.21840000  1.0
  N  N107  1  0.70480000  0.45820000  0.16940000  1.0
  N  N108  1  0.12280000  0.47630000  0.16760000  1.0
  N  N109  1  0.09730000  0.69560000  0.20450000  1.0
  N  N110  1  0.37820000  0.76100000  0.36590000  1.0
  N  N111  1  0.41920000  0.38890000  0.32450000  1.0
  N  N112  1  0.91970000  0.04420000  0.19210000  1.0
  N  N113  1  0.67490000  0.17480000  0.28160000  1.0
  N  N114  1  0.70480000  0.95820000  0.33060000  1.0
  N  N115  1  0.12280000  0.97630000  0.33240000  1.0
  N  N116  1  0.09730000  0.19560000  0.29550000  1.0
  N  N117  1  0.62180000  0.73900000  0.86590000  1.0
  N  N118  1  0.58080000  0.11110000  0.82450000  1.0
  N  N119  1  0.08030000  0.45580000  0.69210000  1.0
  N  N120  1  0.32510000  0.32520000  0.78160000  1.0
  N  N121  1  0.29520000  0.54180000  0.83060000  1.0
  N  N122  1  0.87720000  0.52370000  0.83240000  1.0
  N  N123  1  0.90270000  0.30440000  0.79550000  1.0
