# generated using pymatgen
data_Zn3H14(C12O5)2
_symmetry_space_group_name_H-M   'P 1'
_cell_length_a   20.16580000
_cell_length_b   18.55180000
_cell_length_c   12.15800000
_cell_angle_alpha   90.00000000
_cell_angle_beta   95.33100000
_cell_angle_gamma   90.00000000
_symmetry_Int_Tables_number   1
_chemical_formula_structural   Zn3H14(C12O5)2
_chemical_formula_sum   'Zn12 H56 C96 O40'
_cell_volume   4528.77835086
_cell_formula_units_Z   4
loop_
 _symmetry_equiv_pos_site_id
 _symmetry_equiv_pos_as_xyz
  1  'x, y, z'
loop_
 _atom_site_type_symbol
 _atom_site_label
 _atom_site_symmetry_multiplicity
 _atom_site_fract_x
 _atom_site_fract_y
 _atom_site_fract_z
 _atom_site_occupancy
  Zn  Zn0  1  0.00000000  0.00000000  0.00000000  1.0
  Zn  Zn1  1  0.50000000  0.50000000  0.00000000  1.0
  Zn  Zn2  1  0.00000000  0.00000000  0.50000000  1.0
  Zn  Zn3  1  0.50000000  0.50000000  0.50000000  1.0
  Zn  Zn4  1  0.00000000  0.92123000  0.25000000  1.0
  Zn  Zn5  1  0.00000000  0.07785000  0.25000000  1.0
  Zn  Zn6  1  0.50000000  0.42123000  0.25000000  1.0
  Zn  Zn7  1  0.50000000  0.57785000  0.25000000  1.0
  Zn  Zn8  1  0.00000000  0.07877000  0.75000000  1.0
  Zn  Zn9  1  0.00000000  0.92215000  0.75000000  1.0
  Zn  Zn10  1  0.50000000  0.57877000  0.75000000  1.0
  Zn  Zn11  1  0.50000000  0.42215000  0.75000000  1.0
  H  H12  1  0.07880000  0.99000000  0.16200000  1.0
  H  H13  1  0.83280000  0.78590000  0.17580000  1.0
  H  H14  1  0.86070000  0.85210000  0.86470000  1.0
  H  H15  1  0.73610000  0.70670000  0.20400000  1.0
  H  H16  1  0.18440000  0.90760000  0.09380000  1.0
  H  H17  1  0.27450000  0.84090000  0.16600000  1.0
  H  H18  1  0.14950000  0.76330000  0.84560000  1.0
  H  H19  1  0.57880000  0.49000000  0.16200000  1.0
  H  H20  1  0.33280000  0.28590000  0.17580000  1.0
  H  H21  1  0.36070000  0.35210000  0.86470000  1.0
  H  H22  1  0.23610000  0.20670000  0.20400000  1.0
  H  H23  1  0.68440000  0.40760000  0.09380000  1.0
  H  H24  1  0.77450000  0.34090000  0.16600000  1.0
  H  H25  1  0.64950000  0.26330000  0.84560000  1.0
  H  H26  1  0.92120000  0.99000000  0.33800000  1.0
  H  H27  1  0.16720000  0.78590000  0.32420000  1.0
  H  H28  1  0.13930000  0.85210000  0.63530000  1.0
  H  H29  1  0.26390000  0.70670000  0.29600000  1.0
  H  H30  1  0.81560000  0.90760000  0.40620000  1.0
  H  H31  1  0.72550000  0.84090000  0.33400000  1.0
  H  H32  1  0.85050000  0.76330000  0.65440000  1.0
  H  H33  1  0.42120000  0.49000000  0.33800000  1.0
  H  H34  1  0.66720000  0.28590000  0.32420000  1.0
  H  H35  1  0.63930000  0.35210000  0.63530000  1.0
  H  H36  1  0.76390000  0.20670000  0.29600000  1.0
  H  H37  1  0.31560000  0.40760000  0.40620000  1.0
  H  H38  1  0.22550000  0.34090000  0.33400000  1.0
  H  H39  1  0.35050000  0.26330000  0.65440000  1.0
  H  H40  1  0.92120000  0.01000000  0.83800000  1.0
  H  H41  1  0.16720000  0.21410000  0.82420000  1.0
  H  H42  1  0.13930000  0.14790000  0.13530000  1.0
  H  H43  1  0.26390000  0.29330000  0.79600000  1.0
  H  H44  1  0.81560000  0.09240000  0.90620000  1.0
  H  H45  1  0.72550000  0.15910000  0.83400000  1.0
  H  H46  1  0.85050000  0.23670000  0.15440000  1.0
  H  H47  1  0.42120000  0.51000000  0.83800000  1.0
  H  H48  1  0.66720000  0.71410000  0.82420000  1.0
  H  H49  1  0.63930000  0.64790000  0.13530000  1.0
  H  H50  1  0.76390000  0.79330000  0.79600000  1.0
  H  H51  1  0.31560000  0.59240000  0.90620000  1.0
  H  H52  1  0.22550000  0.65910000  0.83400000  1.0
  H  H53  1  0.35050000  0.73670000  0.15440000  1.0
  H  H54  1  0.07880000  0.01000000  0.66200000  1.0
  H  H55  1  0.83280000  0.21410000  0.67580000  1.0
  H  H56  1  0.86070000  0.14790000  0.36470000  1.0
  H  H57  1  0.73610000  0.29330000  0.70400000  1.0
  H  H58  1  0.18440000  0.09240000  0.59380000  1.0
  H  H59  1  0.27450000  0.15910000  0.66600000  1.0
  H  H60  1  0.14950000  0.23670000  0.34560000  1.0
  H  H61  1  0.57880000  0.51000000  0.66200000  1.0
  H  H62  1  0.33280000  0.71410000  0.67580000  1.0
  H  H63  1  0.36070000  0.64790000  0.36470000  1.0
  H  H64  1  0.23610000  0.79330000  0.70400000  1.0
  H  H65  1  0.68440000  0.59240000  0.59380000  1.0
  H  H66  1  0.77450000  0.65910000  0.66600000  1.0
  H  H67  1  0.64950000  0.73670000  0.34560000  1.0
  C  C68  1  0.91500000  0.86710000  0.07300000  1.0
  C  C69  1  0.85480000  0.82550000  0.02900000  1.0
  C  C70  1  0.81880000  0.78690000  0.09900000  1.0
  C  C71  1  0.76070000  0.74830000  0.05790000  1.0
  C  C72  1  0.83480000  0.82680000  0.91350000  1.0
  C  C73  1  0.72240000  0.70890000  0.12710000  1.0
  C  C74  1  0.09870000  0.88500000  0.91350000  1.0
  C  C75  1  0.15720000  0.84130000  0.96030000  1.0
  C  C76  1  0.19590000  0.86450000  0.05800000  1.0
  C  C77  1  0.24950000  0.82490000  0.10050000  1.0
  C  C78  1  0.17550000  0.77940000  0.91010000  1.0
  C  C79  1  0.26830000  0.76140000  0.04970000  1.0
  C  C80  1  0.41500000  0.36710000  0.07300000  1.0
  C  C81  1  0.35480000  0.32550000  0.02900000  1.0
  C  C82  1  0.31880000  0.28690000  0.09900000  1.0
  C  C83  1  0.26070000  0.24830000  0.05790000  1.0
  C  C84  1  0.33480000  0.32680000  0.91350000  1.0
  C  C85  1  0.22240000  0.20890000  0.12710000  1.0
  C  C86  1  0.59870000  0.38500000  0.91350000  1.0
  C  C87  1  0.65720000  0.34130000  0.96030000  1.0
  C  C88  1  0.69590000  0.36450000  0.05800000  1.0
  C  C89  1  0.74950000  0.32490000  0.10050000  1.0
  C  C90  1  0.67550000  0.27940000  0.91010000  1.0
  C  C91  1  0.76830000  0.26140000  0.04970000  1.0
  C  C92  1  0.08500000  0.86710000  0.42700000  1.0
  C  C93  1  0.14520000  0.82550000  0.47100000  1.0
  C  C94  1  0.18120000  0.78690000  0.40100000  1.0
  C  C95  1  0.23930000  0.74830000  0.44210000  1.0
  C  C96  1  0.16520000  0.82680000  0.58650000  1.0
  C  C97  1  0.27760000  0.70890000  0.37290000  1.0
  C  C98  1  0.90130000  0.88500000  0.58650000  1.0
  C  C99  1  0.84280000  0.84130000  0.53970000  1.0
  C  C100  1  0.80410000  0.86450000  0.44200000  1.0
  C  C101  1  0.75050000  0.82490000  0.39950000  1.0
  C  C102  1  0.82450000  0.77940000  0.58990000  1.0
  C  C103  1  0.73170000  0.76140000  0.45030000  1.0
  C  C104  1  0.58500000  0.36710000  0.42700000  1.0
  C  C105  1  0.64520000  0.32550000  0.47100000  1.0
  C  C106  1  0.68120000  0.28690000  0.40100000  1.0
  C  C107  1  0.73930000  0.24830000  0.44210000  1.0
  C  C108  1  0.66520000  0.32680000  0.58650000  1.0
  C  C109  1  0.77760000  0.20890000  0.37290000  1.0
  C  C110  1  0.40130000  0.38500000  0.58650000  1.0
  C  C111  1  0.34280000  0.34130000  0.53970000  1.0
  C  C112  1  0.30410000  0.36450000  0.44200000  1.0
  C  C113  1  0.25050000  0.32490000  0.39950000  1.0
  C  C114  1  0.32450000  0.27940000  0.58990000  1.0
  C  C115  1  0.23170000  0.26140000  0.45030000  1.0
  C  C116  1  0.08500000  0.13290000  0.92700000  1.0
  C  C117  1  0.14520000  0.17450000  0.97100000  1.0
  C  C118  1  0.18120000  0.21310000  0.90100000  1.0
  C  C119  1  0.23930000  0.25170000  0.94210000  1.0
  C  C120  1  0.16520000  0.17320000  0.08650000  1.0
  C  C121  1  0.27760000  0.29110000  0.87290000  1.0
  C  C122  1  0.90130000  0.11500000  0.08650000  1.0
  C  C123  1  0.84280000  0.15870000  0.03970000  1.0
  C  C124  1  0.80410000  0.13550000  0.94200000  1.0
  C  C125  1  0.75050000  0.17510000  0.89950000  1.0
  C  C126  1  0.82450000  0.22060000  0.08990000  1.0
  C  C127  1  0.73170000  0.23860000  0.95030000  1.0
  C  C128  1  0.58500000  0.63290000  0.92700000  1.0
  C  C129  1  0.64520000  0.67450000  0.97100000  1.0
  C  C130  1  0.68120000  0.71310000  0.90100000  1.0
  C  C131  1  0.73930000  0.75170000  0.94210000  1.0
  C  C132  1  0.66520000  0.67320000  0.08650000  1.0
  C  C133  1  0.77760000  0.79110000  0.87290000  1.0
  C  C134  1  0.40130000  0.61500000  0.08650000  1.0
  C  C135  1  0.34280000  0.65870000  0.03970000  1.0
  C  C136  1  0.30410000  0.63550000  0.94200000  1.0
  C  C137  1  0.25050000  0.67510000  0.89950000  1.0
  C  C138  1  0.32450000  0.72060000  0.08990000  1.0
  C  C139  1  0.23170000  0.73860000  0.95030000  1.0
  C  C140  1  0.91500000  0.13290000  0.57300000  1.0
  C  C141  1  0.85480000  0.17450000  0.52900000  1.0
  C  C142  1  0.81880000  0.21310000  0.59900000  1.0
  C  C143  1  0.76070000  0.25170000  0.55790000  1.0
  C  C144  1  0.83480000  0.17320000  0.41350000  1.0
  C  C145  1  0.72240000  0.29110000  0.62710000  1.0
  C  C146  1  0.09870000  0.11500000  0.41350000  1.0
  C  C147  1  0.15720000  0.15870000  0.46030000  1.0
  C  C148  1  0.19590000  0.13550000  0.55800000  1.0
  C  C149  1  0.24950000  0.17510000  0.60050000  1.0
  C  C150  1  0.17550000  0.22060000  0.41010000  1.0
  C  C151  1  0.26830000  0.23860000  0.54970000  1.0
  C  C152  1  0.41500000  0.63290000  0.57300000  1.0
  C  C153  1  0.35480000  0.67450000  0.52900000  1.0
  C  C154  1  0.31880000  0.71310000  0.59900000  1.0
  C  C155  1  0.26070000  0.75170000  0.55790000  1.0
  C  C156  1  0.33480000  0.67320000  0.41350000  1.0
  C  C157  1  0.22240000  0.79110000  0.62710000  1.0
  C  C158  1  0.59870000  0.61500000  0.41350000  1.0
  C  C159  1  0.65720000  0.65870000  0.46030000  1.0
  C  C160  1  0.69590000  0.63550000  0.55800000  1.0
  C  C161  1  0.74950000  0.67510000  0.60050000  1.0
  C  C162  1  0.67550000  0.72060000  0.41010000  1.0
  C  C163  1  0.76830000  0.73860000  0.54970000  1.0
  O  O164  1  0.03810000  0.99930000  0.16150000  1.0
  O  O165  1  0.94830000  0.90000000  0.00790000  1.0
  O  O166  1  0.92890000  0.86470000  0.17730000  1.0
  O  O167  1  0.06710000  0.86150000  0.82680000  1.0
  O  O168  1  0.08730000  0.94440000  0.96010000  1.0
  O  O169  1  0.53810000  0.49930000  0.16150000  1.0
  O  O170  1  0.44830000  0.40000000  0.00790000  1.0
  O  O171  1  0.42890000  0.36470000  0.17730000  1.0
  O  O172  1  0.56710000  0.36150000  0.82680000  1.0
  O  O173  1  0.58730000  0.44440000  0.96010000  1.0
  O  O174  1  0.96190000  0.99930000  0.33850000  1.0
  O  O175  1  0.05170000  0.90000000  0.49210000  1.0
  O  O176  1  0.07110000  0.86470000  0.32270000  1.0
  O  O177  1  0.93290000  0.86150000  0.67320000  1.0
  O  O178  1  0.91270000  0.94440000  0.53990000  1.0
  O  O179  1  0.46190000  0.49930000  0.33850000  1.0
  O  O180  1  0.55170000  0.40000000  0.49210000  1.0
  O  O181  1  0.57110000  0.36470000  0.32270000  1.0
  O  O182  1  0.43290000  0.36150000  0.67320000  1.0
  O  O183  1  0.41270000  0.44440000  0.53990000  1.0
  O  O184  1  0.96190000  0.00070000  0.83850000  1.0
  O  O185  1  0.05170000  0.10000000  0.99210000  1.0
  O  O186  1  0.07110000  0.13530000  0.82270000  1.0
  O  O187  1  0.93290000  0.13850000  0.17320000  1.0
  O  O188  1  0.91270000  0.05560000  0.03990000  1.0
  O  O189  1  0.46190000  0.50070000  0.83850000  1.0
  O  O190  1  0.55170000  0.60000000  0.99210000  1.0
  O  O191  1  0.57110000  0.63530000  0.82270000  1.0
  O  O192  1  0.43290000  0.63850000  0.17320000  1.0
  O  O193  1  0.41270000  0.55560000  0.03990000  1.0
  O  O194  1  0.03810000  0.00070000  0.66150000  1.0
  O  O195  1  0.94830000  0.10000000  0.50790000  1.0
  O  O196  1  0.92890000  0.13530000  0.67730000  1.0
  O  O197  1  0.06710000  0.13850000  0.32680000  1.0
  O  O198  1  0.08730000  0.05560000  0.46010000  1.0
  O  O199  1  0.53810000  0.50070000  0.66150000  1.0
  O  O200  1  0.44830000  0.60000000  0.50790000  1.0
  O  O201  1  0.42890000  0.63530000  0.67730000  1.0
  O  O202  1  0.56710000  0.63850000  0.32680000  1.0
  O  O203  1  0.58730000  0.55560000  0.46010000  1.0
