# generated using pymatgen
data_Na8PH6RuW9(C3O16)2
_symmetry_space_group_name_H-M   'P 1'
_cell_length_a   15.19900000
_cell_length_b   16.95800000
_cell_length_c   19.93200000
_cell_angle_alpha   90.00000000
_cell_angle_beta   90.92700000
_cell_angle_gamma   90.00000000
_symmetry_Int_Tables_number   1
_chemical_formula_structural   Na8PH6RuW9(C3O16)2
_chemical_formula_sum   'Na32 P4 H24 Ru4 W36 C24 O128'
_cell_volume   5136.69382361
_cell_formula_units_Z   4
loop_
 _symmetry_equiv_pos_site_id
 _symmetry_equiv_pos_as_xyz
  1  'x, y, z'
loop_
 _atom_site_type_symbol
 _atom_site_label
 _atom_site_symmetry_multiplicity
 _atom_site_fract_x
 _atom_site_fract_y
 _atom_site_fract_z
 _atom_site_occupancy
  Na  Na0  1  0.80380000  0.98800000  0.49360000  1.0
  Na  Na1  1  0.81260000  0.84430000  0.62660000  1.0
  Na  Na2  1  0.01690000  0.79310000  0.70990000  1.0
  Na  Na3  1  0.79650000  0.11290000  0.35380000  1.0
  Na  Na4  1  0.58480000  0.04360000  0.41480000  1.0
  Na  Na5  1  0.00470000  0.93330000  0.57180000  1.0
  Na  Na6  1  0.99940000  0.01840000  0.47830000  1.0
  Na  Na7  1  0.02090000  0.79210000  0.03720000  1.0
  Na  Na8  1  0.69620000  0.48800000  0.00640000  1.0
  Na  Na9  1  0.68740000  0.34430000  0.87340000  1.0
  Na  Na10  1  0.48310000  0.29310000  0.79010000  1.0
  Na  Na11  1  0.70350000  0.61290000  0.14620000  1.0
  Na  Na12  1  0.91520000  0.54360000  0.08520000  1.0
  Na  Na13  1  0.49530000  0.43330000  0.92820000  1.0
  Na  Na14  1  0.50060000  0.51840000  0.02170000  1.0
  Na  Na15  1  0.47910000  0.29210000  0.46280000  1.0
  Na  Na16  1  0.19620000  0.01200000  0.50640000  1.0
  Na  Na17  1  0.18740000  0.15570000  0.37340000  1.0
  Na  Na18  1  0.98310000  0.20690000  0.29010000  1.0
  Na  Na19  1  0.20350000  0.88710000  0.64620000  1.0
  Na  Na20  1  0.41520000  0.95640000  0.58520000  1.0
  Na  Na21  1  0.99530000  0.06670000  0.42820000  1.0
  Na  Na22  1  0.00060000  0.98160000  0.52170000  1.0
  Na  Na23  1  0.97910000  0.20790000  0.96280000  1.0
  Na  Na24  1  0.30380000  0.51200000  0.99360000  1.0
  Na  Na25  1  0.31260000  0.65570000  0.12660000  1.0
  Na  Na26  1  0.51690000  0.70690000  0.20990000  1.0
  Na  Na27  1  0.29650000  0.38710000  0.85380000  1.0
  Na  Na28  1  0.08480000  0.45640000  0.91480000  1.0
  Na  Na29  1  0.50470000  0.56670000  0.07180000  1.0
  Na  Na30  1  0.49940000  0.48160000  0.97830000  1.0
  Na  Na31  1  0.52090000  0.70790000  0.53720000  1.0
  P  P32  1  0.95392000  0.84506000  0.39028000  1.0
  P  P33  1  0.54608000  0.34506000  0.10972000  1.0
  P  P34  1  0.04608000  0.15494000  0.60972000  1.0
  P  P35  1  0.45392000  0.65494000  0.89028000  1.0
  H  H36  1  0.94840000  0.45490000  0.46240000  1.0
  H  H37  1  0.87030000  0.52650000  0.54550000  1.0
  H  H38  1  0.73340000  0.58000000  0.52040000  1.0
  H  H39  1  0.67390000  0.56610000  0.41740000  1.0
  H  H40  1  0.74250000  0.49500000  0.33170000  1.0
  H  H41  1  0.88650000  0.43890000  0.35750000  1.0
  H  H42  1  0.55160000  0.95490000  0.03760000  1.0
  H  H43  1  0.62970000  0.02650000  0.95450000  1.0
  H  H44  1  0.76660000  0.08000000  0.97960000  1.0
  H  H45  1  0.82610000  0.06610000  0.08260000  1.0
  H  H46  1  0.75750000  0.99500000  0.16830000  1.0
  H  H47  1  0.61350000  0.93890000  0.14250000  1.0
  H  H48  1  0.05160000  0.54510000  0.53760000  1.0
  H  H49  1  0.12970000  0.47350000  0.45450000  1.0
  H  H50  1  0.26660000  0.42000000  0.47960000  1.0
  H  H51  1  0.32610000  0.43390000  0.58260000  1.0
  H  H52  1  0.25750000  0.50500000  0.66830000  1.0
  H  H53  1  0.11350000  0.56110000  0.64250000  1.0
  H  H54  1  0.44840000  0.04510000  0.96240000  1.0
  H  H55  1  0.37030000  0.97350000  0.04550000  1.0
  H  H56  1  0.23340000  0.92000000  0.02040000  1.0
  H  H57  1  0.17390000  0.93390000  0.91740000  1.0
  H  H58  1  0.24250000  0.00500000  0.83170000  1.0
  H  H59  1  0.38650000  0.06110000  0.85750000  1.0
  Ru  Ru60  1  0.85692000  0.59098000  0.41301000  1.0
  Ru  Ru61  1  0.64308000  0.09098000  0.08699000  1.0
  Ru  Ru62  1  0.14308000  0.40902000  0.58699000  1.0
  Ru  Ru63  1  0.35692000  0.90902000  0.91301000  1.0
  W  W64  1  0.83697000  0.70462000  0.29026000  1.0
  W  W65  1  0.04215000  0.65224000  0.36464000  1.0
  W  W66  1  0.03039000  0.78377000  0.23231000  1.0
  W  W67  1  0.94902000  0.98802000  0.25817000  1.0
  W  W68  1  0.74226000  0.90390000  0.32510000  1.0
  W  W69  1  0.75142000  0.77906000  0.45896000  1.0
  W  W70  1  0.96609000  0.72218000  0.53728000  1.0
  W  W71  1  0.15448000  0.79956000  0.47761000  1.0
  W  W72  1  0.14552000  0.93935000  0.33296000  1.0
  W  W73  1  0.66303000  0.20462000  0.20974000  1.0
  W  W74  1  0.45785000  0.15224000  0.13536000  1.0
  W  W75  1  0.46961000  0.28377000  0.26769000  1.0
  W  W76  1  0.55098000  0.48802000  0.24183000  1.0
  W  W77  1  0.75774000  0.40390000  0.17490000  1.0
  W  W78  1  0.74858000  0.27906000  0.04104000  1.0
  W  W79  1  0.53391000  0.22218000  0.96272000  1.0
  W  W80  1  0.34552000  0.29956000  0.02239000  1.0
  W  W81  1  0.35448000  0.43935000  0.16704000  1.0
  W  W82  1  0.16303000  0.29538000  0.70974000  1.0
  W  W83  1  0.95785000  0.34776000  0.63536000  1.0
  W  W84  1  0.96961000  0.21623000  0.76769000  1.0
  W  W85  1  0.05098000  0.01198000  0.74183000  1.0
  W  W86  1  0.25774000  0.09610000  0.67490000  1.0
  W  W87  1  0.24858000  0.22094000  0.54104000  1.0
  W  W88  1  0.03391000  0.27782000  0.46272000  1.0
  W  W89  1  0.84552000  0.20044000  0.52239000  1.0
  W  W90  1  0.85448000  0.06065000  0.66704000  1.0
  W  W91  1  0.33697000  0.79538000  0.79026000  1.0
  W  W92  1  0.54215000  0.84776000  0.86464000  1.0
  W  W93  1  0.53039000  0.71623000  0.73231000  1.0
  W  W94  1  0.44902000  0.51198000  0.75817000  1.0
  W  W95  1  0.24226000  0.59610000  0.82510000  1.0
  W  W96  1  0.25142000  0.72094000  0.95896000  1.0
  W  W97  1  0.46609000  0.77782000  0.03728000  1.0
  W  W98  1  0.65448000  0.70044000  0.97761000  1.0
  W  W99  1  0.64552000  0.56065000  0.83296000  1.0
  C  C100  1  0.89320000  0.47590000  0.45270000  1.0
  C  C101  1  0.84600000  0.52040000  0.50270000  1.0
  C  C102  1  0.76350000  0.55240000  0.48760000  1.0
  C  C103  1  0.72820000  0.54300000  0.42660000  1.0
  C  C104  1  0.76820000  0.50140000  0.37400000  1.0
  C  C105  1  0.85650000  0.46720000  0.38990000  1.0
  C  C106  1  0.60680000  0.97590000  0.04730000  1.0
  C  C107  1  0.65400000  0.02040000  0.99730000  1.0
  C  C108  1  0.73650000  0.05240000  0.01240000  1.0
  C  C109  1  0.77180000  0.04300000  0.07340000  1.0
  C  C110  1  0.73180000  0.00140000  0.12600000  1.0
  C  C111  1  0.64350000  0.96720000  0.11010000  1.0
  C  C112  1  0.10680000  0.52410000  0.54730000  1.0
  C  C113  1  0.15400000  0.47960000  0.49730000  1.0
  C  C114  1  0.23650000  0.44760000  0.51240000  1.0
  C  C115  1  0.27180000  0.45700000  0.57340000  1.0
  C  C116  1  0.23180000  0.49860000  0.62600000  1.0
  C  C117  1  0.14350000  0.53280000  0.61010000  1.0
  C  C118  1  0.39320000  0.02410000  0.95270000  1.0
  C  C119  1  0.34600000  0.97960000  0.00270000  1.0
  C  C120  1  0.26350000  0.94760000  0.98760000  1.0
  C  C121  1  0.22820000  0.95700000  0.92660000  1.0
  C  C122  1  0.26820000  0.99860000  0.87400000  1.0
  C  C123  1  0.35650000  0.03280000  0.88990000  1.0
  O  O124  1  0.73550000  0.14100000  0.24730000  1.0
  O  O125  1  0.92320000  0.62450000  0.32570000  1.0
  O  O126  1  0.80320000  0.70170000  0.38280000  1.0
  O  O127  1  0.78430000  0.79910000  0.27970000  1.0
  O  O128  1  0.91910000  0.72160000  0.22180000  1.0
  O  O129  1  0.97180000  0.65600000  0.44460000  1.0
  O  O130  1  0.12560000  0.71380000  0.40270000  1.0
  O  O131  1  0.06980000  0.68330000  0.27660000  1.0
  O  O132  1  0.07390000  0.76650000  0.15390000  1.0
  O  O133  1  0.11820000  0.83650000  0.27720000  1.0
  O  O134  1  0.96580000  0.87340000  0.22110000  1.0
  O  O135  1  0.07670000  0.98590000  0.26140000  1.0
  O  O136  1  0.06200000  0.93020000  0.68910000  1.0
  O  O137  1  0.83480000  0.94780000  0.27540000  1.0
  O  O138  1  0.73450000  0.98330000  0.38200000  1.0
  O  O139  1  0.69000000  0.82700000  0.38420000  1.0
  O  O140  1  0.66720000  0.71720000  0.48500000  1.0
  O  O141  1  0.74310000  0.86080000  0.51230000  1.0
  O  O142  1  0.96080000  0.80080000  0.59430000  1.0
  O  O143  1  0.09110000  0.72310000  0.52950000  1.0
  O  O144  1  0.14700000  0.87840000  0.53390000  1.0
  O  O145  1  0.16970000  0.86400000  0.40090000  1.0
  O  O146  1  0.84930000  0.73540000  0.50640000  1.0
  O  O147  1  0.96220000  0.77530000  0.33960000  1.0
  O  O148  1  0.99630000  0.91860000  0.35750000  1.0
  O  O149  1  0.00140000  0.82310000  0.45620000  1.0
  O  O150  1  0.85620000  0.86080000  0.40270000  1.0
  O  O151  1  0.14010000  0.02100000  0.38750000  1.0
  O  O152  1  0.65580000  0.15890000  0.39670000  1.0
  O  O153  1  0.15480000  0.74800000  0.66430000  1.0
  O  O154  1  0.88100000  0.84900000  0.73740000  1.0
  O  O155  1  0.66020000  0.03970000  0.52180000  1.0
  O  O156  1  0.76450000  0.64100000  0.25270000  1.0
  O  O157  1  0.57680000  0.12450000  0.17430000  1.0
  O  O158  1  0.69680000  0.20170000  0.11720000  1.0
  O  O159  1  0.71570000  0.29910000  0.22030000  1.0
  O  O160  1  0.58090000  0.22160000  0.27820000  1.0
  O  O161  1  0.52820000  0.15600000  0.05540000  1.0
  O  O162  1  0.37440000  0.21380000  0.09730000  1.0
  O  O163  1  0.43020000  0.18330000  0.22340000  1.0
  O  O164  1  0.42610000  0.26650000  0.34610000  1.0
  O  O165  1  0.38180000  0.33650000  0.22280000  1.0
  O  O166  1  0.53420000  0.37340000  0.27890000  1.0
  O  O167  1  0.42330000  0.48590000  0.23860000  1.0
  O  O168  1  0.43800000  0.43020000  0.81090000  1.0
  O  O169  1  0.66520000  0.44780000  0.22460000  1.0
  O  O170  1  0.76550000  0.48330000  0.11800000  1.0
  O  O171  1  0.81000000  0.32700000  0.11580000  1.0
  O  O172  1  0.83280000  0.21720000  0.01500000  1.0
  O  O173  1  0.75690000  0.36080000  0.98770000  1.0
  O  O174  1  0.53920000  0.30080000  0.90570000  1.0
  O  O175  1  0.40890000  0.22310000  0.97050000  1.0
  O  O176  1  0.35300000  0.37840000  0.96610000  1.0
  O  O177  1  0.33030000  0.36400000  0.09910000  1.0
  O  O178  1  0.65070000  0.23540000  0.99360000  1.0
  O  O179  1  0.53780000  0.27530000  0.16040000  1.0
  O  O180  1  0.50370000  0.41860000  0.14250000  1.0
  O  O181  1  0.49860000  0.32310000  0.04380000  1.0
  O  O182  1  0.64380000  0.36080000  0.09730000  1.0
  O  O183  1  0.35990000  0.52100000  0.11250000  1.0
  O  O184  1  0.84420000  0.65890000  0.10330000  1.0
  O  O185  1  0.34520000  0.24800000  0.83570000  1.0
  O  O186  1  0.61900000  0.34900000  0.76260000  1.0
  O  O187  1  0.83980000  0.53970000  0.97820000  1.0
  O  O188  1  0.26450000  0.85900000  0.75270000  1.0
  O  O189  1  0.07680000  0.37550000  0.67430000  1.0
  O  O190  1  0.19680000  0.29830000  0.61720000  1.0
  O  O191  1  0.21570000  0.20090000  0.72030000  1.0
  O  O192  1  0.08090000  0.27840000  0.77820000  1.0
  O  O193  1  0.02820000  0.34400000  0.55540000  1.0
  O  O194  1  0.87440000  0.28620000  0.59730000  1.0
  O  O195  1  0.93020000  0.31670000  0.72340000  1.0
  O  O196  1  0.92610000  0.23350000  0.84610000  1.0
  O  O197  1  0.88180000  0.16350000  0.72280000  1.0
  O  O198  1  0.03420000  0.12660000  0.77890000  1.0
  O  O199  1  0.92330000  0.01410000  0.73860000  1.0
  O  O200  1  0.93800000  0.06980000  0.31090000  1.0
  O  O201  1  0.16520000  0.05220000  0.72460000  1.0
  O  O202  1  0.26550000  0.01670000  0.61800000  1.0
  O  O203  1  0.31000000  0.17300000  0.61580000  1.0
  O  O204  1  0.33280000  0.28280000  0.51500000  1.0
  O  O205  1  0.25690000  0.13920000  0.48770000  1.0
  O  O206  1  0.03920000  0.19920000  0.40570000  1.0
  O  O207  1  0.90890000  0.27690000  0.47050000  1.0
  O  O208  1  0.85300000  0.12160000  0.46610000  1.0
  O  O209  1  0.83030000  0.13600000  0.59910000  1.0
  O  O210  1  0.15070000  0.26460000  0.49360000  1.0
  O  O211  1  0.03780000  0.22470000  0.66040000  1.0
  O  O212  1  0.00370000  0.08140000  0.64250000  1.0
  O  O213  1  0.99860000  0.17690000  0.54380000  1.0
  O  O214  1  0.14380000  0.13920000  0.59730000  1.0
  O  O215  1  0.85990000  0.97900000  0.61250000  1.0
  O  O216  1  0.34420000  0.84110000  0.60330000  1.0
  O  O217  1  0.84520000  0.25200000  0.33570000  1.0
  O  O218  1  0.11900000  0.15100000  0.26260000  1.0
  O  O219  1  0.33980000  0.96030000  0.47820000  1.0
  O  O220  1  0.23550000  0.35900000  0.74730000  1.0
  O  O221  1  0.42320000  0.87550000  0.82570000  1.0
  O  O222  1  0.30320000  0.79830000  0.88280000  1.0
  O  O223  1  0.28430000  0.70090000  0.77970000  1.0
  O  O224  1  0.41910000  0.77840000  0.72180000  1.0
  O  O225  1  0.47180000  0.84400000  0.94460000  1.0
  O  O226  1  0.62560000  0.78620000  0.90270000  1.0
  O  O227  1  0.56980000  0.81670000  0.77660000  1.0
  O  O228  1  0.57390000  0.73350000  0.65390000  1.0
  O  O229  1  0.61820000  0.66350000  0.77720000  1.0
  O  O230  1  0.46580000  0.62660000  0.72110000  1.0
  O  O231  1  0.57670000  0.51410000  0.76140000  1.0
  O  O232  1  0.56200000  0.56980000  0.18910000  1.0
  O  O233  1  0.33480000  0.55220000  0.77540000  1.0
  O  O234  1  0.23450000  0.51670000  0.88200000  1.0
  O  O235  1  0.19000000  0.67300000  0.88420000  1.0
  O  O236  1  0.16720000  0.78280000  0.98500000  1.0
  O  O237  1  0.24310000  0.63920000  0.01230000  1.0
  O  O238  1  0.46080000  0.69920000  0.09430000  1.0
  O  O239  1  0.59110000  0.77690000  0.02950000  1.0
  O  O240  1  0.64700000  0.62160000  0.03390000  1.0
  O  O241  1  0.66970000  0.63600000  0.90090000  1.0
  O  O242  1  0.34930000  0.76460000  0.00640000  1.0
  O  O243  1  0.46220000  0.72470000  0.83960000  1.0
  O  O244  1  0.49630000  0.58140000  0.85750000  1.0
  O  O245  1  0.50140000  0.67690000  0.95620000  1.0
  O  O246  1  0.35620000  0.63920000  0.90270000  1.0
  O  O247  1  0.64010000  0.47900000  0.88750000  1.0
  O  O248  1  0.15580000  0.34110000  0.89670000  1.0
  O  O249  1  0.65480000  0.75200000  0.16430000  1.0
  O  O250  1  0.38100000  0.65100000  0.23740000  1.0
  O  O251  1  0.16020000  0.46030000  0.02180000  1.0
