# generated using pymatgen
data_Sm3H35(C3N2)11
_symmetry_space_group_name_H-M   'P 1'
_cell_length_a   13.01400000
_cell_length_b   23.69500000
_cell_length_c   16.21400000
_cell_angle_alpha   90.00000000
_cell_angle_beta   107.04000000
_cell_angle_gamma   90.00000000
_symmetry_Int_Tables_number   1
_chemical_formula_structural   Sm3H35(C3N2)11
_chemical_formula_sum   'Sm12 H140 C132 N88'
_cell_volume   4780.36643182
_cell_formula_units_Z   4
loop_
 _symmetry_equiv_pos_site_id
 _symmetry_equiv_pos_as_xyz
  1  'x, y, z'
loop_
 _atom_site_type_symbol
 _atom_site_label
 _atom_site_symmetry_multiplicity
 _atom_site_fract_x
 _atom_site_fract_y
 _atom_site_fract_z
 _atom_site_occupancy
  Sm  Sm0  1  0.75230000  0.32792000  0.67742000  1.0
  Sm  Sm1  1  0.31176000  0.32612000  0.82740000  1.0
  Sm  Sm2  1  0.52649000  0.57874000  0.75290000  1.0
  Sm  Sm3  1  0.25230000  0.82792000  0.67742000  1.0
  Sm  Sm4  1  0.81176000  0.82612000  0.82740000  1.0
  Sm  Sm5  1  0.02649000  0.07874000  0.75290000  1.0
  Sm  Sm6  1  0.75230000  0.67208000  0.17742000  1.0
  Sm  Sm7  1  0.31176000  0.67388000  0.32740000  1.0
  Sm  Sm8  1  0.52649000  0.42126000  0.25290000  1.0
  Sm  Sm9  1  0.25230000  0.17208000  0.17742000  1.0
  Sm  Sm10  1  0.81176000  0.17388000  0.32740000  1.0
  Sm  Sm11  1  0.02649000  0.92126000  0.25290000  1.0
  H  H12  1  0.45500000  0.16250000  0.53360000  1.0
  H  H13  1  0.15490000  0.34540000  0.47350000  1.0
  H  H14  1  0.49380000  0.29400000  0.71050000  1.0
  H  H15  1  0.74880000  0.33770000  0.89790000  1.0
  H  H16  1  0.59460000  0.33260000  0.95660000  1.0
  H  H17  1  0.74950000  0.22090000  0.51960000  1.0
  H  H18  1  0.94820000  0.35060000  0.55620000  1.0
  H  H19  1  0.96320000  0.29770000  0.43000000  1.0
  H  H20  1  0.03830000  0.30550000  0.70450000  1.0
  H  H21  1  0.92620000  0.39670000  0.86460000  1.0
  H  H22  1  0.12080000  0.38590000  0.92610000  1.0
  H  H23  1  0.60410000  0.42780000  0.77040000  1.0
  H  H24  1  0.86640000  0.46690000  0.70600000  1.0
  H  H25  1  0.78090000  0.55500000  0.73160000  1.0
  H  H26  1  0.71490000  0.35950000  0.44680000  1.0
  H  H27  1  0.57540000  0.44500000  0.59400000  1.0
  H  H28  1  0.49470000  0.47300000  0.44250000  1.0
  H  H29  1  0.61210000  0.19290000  0.64690000  1.0
  H  H30  1  0.50850000  0.32080000  0.48850000  1.0
  H  H31  1  0.39460000  0.24260000  0.43060000  1.0
  H  H32  1  0.47240000  0.44430000  0.83230000  1.0
  H  H33  1  0.16440000  0.44990000  0.70870000  1.0
  H  H34  1  0.24480000  0.54090000  0.68800000  1.0
  H  H35  1  0.14810000  0.21000000  0.82680000  1.0
  H  H36  1  0.30380000  0.21870000  0.65200000  1.0
  H  H37  1  0.19470000  0.13250000  0.62530000  1.0
  H  H38  1  0.14390000  0.30440000  0.60510000  1.0
  H  H39  1  0.41530000  0.38850000  0.65360000  1.0
  H  H40  1  0.32020000  0.40200000  0.49940000  1.0
  H  H41  1  0.42640000  0.71340000  0.69350000  1.0
  H  H42  1  0.31240000  0.62030000  0.84790000  1.0
  H  H43  1  0.21260000  0.70950000  0.82190000  1.0
  H  H44  1  0.46530000  0.65950000  0.55450000  1.0
  H  H45  1  0.38200000  0.49800000  0.57600000  1.0
  H  H46  1  0.28040000  0.53760000  0.42790000  1.0
  H  H47  1  0.95500000  0.66250000  0.53360000  1.0
  H  H48  1  0.65490000  0.84540000  0.47350000  1.0
  H  H49  1  0.99380000  0.79400000  0.71050000  1.0
  H  H50  1  0.24880000  0.83770000  0.89790000  1.0
  H  H51  1  0.09460000  0.83260000  0.95660000  1.0
  H  H52  1  0.24950000  0.72090000  0.51960000  1.0
  H  H53  1  0.44820000  0.85060000  0.55620000  1.0
  H  H54  1  0.46320000  0.79770000  0.43000000  1.0
  H  H55  1  0.53830000  0.80550000  0.70450000  1.0
  H  H56  1  0.42620000  0.89670000  0.86460000  1.0
  H  H57  1  0.62080000  0.88590000  0.92610000  1.0
  H  H58  1  0.10410000  0.92780000  0.77040000  1.0
  H  H59  1  0.36640000  0.96690000  0.70600000  1.0
  H  H60  1  0.28090000  0.05500000  0.73160000  1.0
  H  H61  1  0.21490000  0.85950000  0.44680000  1.0
  H  H62  1  0.07540000  0.94500000  0.59400000  1.0
  H  H63  1  0.99470000  0.97300000  0.44250000  1.0
  H  H64  1  0.11210000  0.69290000  0.64690000  1.0
  H  H65  1  0.00850000  0.82080000  0.48850000  1.0
  H  H66  1  0.89460000  0.74260000  0.43060000  1.0
  H  H67  1  0.97240000  0.94430000  0.83230000  1.0
  H  H68  1  0.66440000  0.94990000  0.70870000  1.0
  H  H69  1  0.74480000  0.04090000  0.68800000  1.0
  H  H70  1  0.64810000  0.71000000  0.82680000  1.0
  H  H71  1  0.80380000  0.71870000  0.65200000  1.0
  H  H72  1  0.69470000  0.63250000  0.62530000  1.0
  H  H73  1  0.64390000  0.80440000  0.60510000  1.0
  H  H74  1  0.91530000  0.88850000  0.65360000  1.0
  H  H75  1  0.82020000  0.90200000  0.49940000  1.0
  H  H76  1  0.92640000  0.21340000  0.69350000  1.0
  H  H77  1  0.81240000  0.12030000  0.84790000  1.0
  H  H78  1  0.71260000  0.20950000  0.82190000  1.0
  H  H79  1  0.96530000  0.15950000  0.55450000  1.0
  H  H80  1  0.88200000  0.99800000  0.57600000  1.0
  H  H81  1  0.78040000  0.03760000  0.42790000  1.0
  H  H82  1  0.45500000  0.83750000  0.03360000  1.0
  H  H83  1  0.15490000  0.65460000  0.97350000  1.0
  H  H84  1  0.49380000  0.70600000  0.21050000  1.0
  H  H85  1  0.74880000  0.66230000  0.39790000  1.0
  H  H86  1  0.59460000  0.66740000  0.45660000  1.0
  H  H87  1  0.74950000  0.77910000  0.01960000  1.0
  H  H88  1  0.94820000  0.64940000  0.05620000  1.0
  H  H89  1  0.96320000  0.70230000  0.93000000  1.0
  H  H90  1  0.03830000  0.69450000  0.20450000  1.0
  H  H91  1  0.92620000  0.60330000  0.36460000  1.0
  H  H92  1  0.12080000  0.61410000  0.42610000  1.0
  H  H93  1  0.60410000  0.57220000  0.27040000  1.0
  H  H94  1  0.86640000  0.53310000  0.20600000  1.0
  H  H95  1  0.78090000  0.44500000  0.23160000  1.0
  H  H96  1  0.71490000  0.64050000  0.94680000  1.0
  H  H97  1  0.57540000  0.55500000  0.09400000  1.0
  H  H98  1  0.49470000  0.52700000  0.94250000  1.0
  H  H99  1  0.61210000  0.80710000  0.14690000  1.0
  H  H100  1  0.50850000  0.67920000  0.98850000  1.0
  H  H101  1  0.39460000  0.75740000  0.93060000  1.0
  H  H102  1  0.47240000  0.55570000  0.33230000  1.0
  H  H103  1  0.16440000  0.55010000  0.20870000  1.0
  H  H104  1  0.24480000  0.45910000  0.18800000  1.0
  H  H105  1  0.14810000  0.79000000  0.32680000  1.0
  H  H106  1  0.30380000  0.78130000  0.15200000  1.0
  H  H107  1  0.19470000  0.86750000  0.12530000  1.0
  H  H108  1  0.14390000  0.69560000  0.10510000  1.0
  H  H109  1  0.41530000  0.61150000  0.15360000  1.0
  H  H110  1  0.32020000  0.59800000  0.99940000  1.0
  H  H111  1  0.42640000  0.28660000  0.19350000  1.0
  H  H112  1  0.31240000  0.37970000  0.34790000  1.0
  H  H113  1  0.21260000  0.29050000  0.32190000  1.0
  H  H114  1  0.46530000  0.34050000  0.05450000  1.0
  H  H115  1  0.38200000  0.50200000  0.07600000  1.0
  H  H116  1  0.28040000  0.46240000  0.92790000  1.0
  H  H117  1  0.95500000  0.33750000  0.03360000  1.0
  H  H118  1  0.65490000  0.15460000  0.97350000  1.0
  H  H119  1  0.99380000  0.20600000  0.21050000  1.0
  H  H120  1  0.24880000  0.16230000  0.39790000  1.0
  H  H121  1  0.09460000  0.16740000  0.45660000  1.0
  H  H122  1  0.24950000  0.27910000  0.01960000  1.0
  H  H123  1  0.44820000  0.14940000  0.05620000  1.0
  H  H124  1  0.46320000  0.20230000  0.93000000  1.0
  H  H125  1  0.53830000  0.19450000  0.20450000  1.0
  H  H126  1  0.42620000  0.10330000  0.36460000  1.0
  H  H127  1  0.62080000  0.11410000  0.42610000  1.0
  H  H128  1  0.10410000  0.07220000  0.27040000  1.0
  H  H129  1  0.36640000  0.03310000  0.20600000  1.0
  H  H130  1  0.28090000  0.94500000  0.23160000  1.0
  H  H131  1  0.21490000  0.14050000  0.94680000  1.0
  H  H132  1  0.07540000  0.05500000  0.09400000  1.0
  H  H133  1  0.99470000  0.02700000  0.94250000  1.0
  H  H134  1  0.11210000  0.30710000  0.14690000  1.0
  H  H135  1  0.00850000  0.17920000  0.98850000  1.0
  H  H136  1  0.89460000  0.25740000  0.93060000  1.0
  H  H137  1  0.97240000  0.05570000  0.33230000  1.0
  H  H138  1  0.66440000  0.05010000  0.20870000  1.0
  H  H139  1  0.74480000  0.95910000  0.18800000  1.0
  H  H140  1  0.64810000  0.29000000  0.32680000  1.0
  H  H141  1  0.80380000  0.28130000  0.15200000  1.0
  H  H142  1  0.69470000  0.36750000  0.12530000  1.0
  H  H143  1  0.64390000  0.19560000  0.10510000  1.0
  H  H144  1  0.91530000  0.11150000  0.15360000  1.0
  H  H145  1  0.82020000  0.09800000  0.99940000  1.0
  H  H146  1  0.92640000  0.78660000  0.19350000  1.0
  H  H147  1  0.81240000  0.87970000  0.34790000  1.0
  H  H148  1  0.71260000  0.79050000  0.32190000  1.0
  H  H149  1  0.96530000  0.84050000  0.05450000  1.0
  H  H150  1  0.88200000  0.00200000  0.07600000  1.0
  H  H151  1  0.78040000  0.96240000  0.92790000  1.0
  C  C152  1  0.53860000  0.30540000  0.76540000  1.0
  C  C153  1  0.67720000  0.32870000  0.86580000  1.0
  C  C154  1  0.59230000  0.32580000  0.89840000  1.0
  C  C155  1  0.80220000  0.24700000  0.51340000  1.0
  C  C156  1  0.90950000  0.31730000  0.53370000  1.0
  C  C157  1  0.91740000  0.28810000  0.46390000  1.0
  C  C158  1  0.03480000  0.32800000  0.75220000  1.0
  C  C159  1  0.97250000  0.37710000  0.83880000  1.0
  C  C160  1  0.07980000  0.37120000  0.87200000  1.0
  C  C161  1  0.65990000  0.44860000  0.75750000  1.0
  C  C162  1  0.80240000  0.46950000  0.72260000  1.0
  C  C163  1  0.75500000  0.51800000  0.73650000  1.0
  C  C164  1  0.66960000  0.38480000  0.46530000  1.0
  C  C165  1  0.59480000  0.43070000  0.54590000  1.0
  C  C166  1  0.55050000  0.44610000  0.46220000  1.0
  C  C167  1  0.57110000  0.21500000  0.59980000  1.0
  C  C168  1  0.51530000  0.28420000  0.51350000  1.0
  C  C169  1  0.45260000  0.24230000  0.48240000  1.0
  C  C170  1  0.40430000  0.45740000  0.79790000  1.0
  C  C171  1  0.23800000  0.45990000  0.73180000  1.0
  C  C172  1  0.28250000  0.50990000  0.72010000  1.0
  C  C173  1  0.17370000  0.20110000  0.77920000  1.0
  C  C174  1  0.25860000  0.20640000  0.68500000  1.0
  C  C175  1  0.19840000  0.15890000  0.67020000  1.0
  C  C176  1  0.20220000  0.32620000  0.59850000  1.0
  C  C177  1  0.34800000  0.37220000  0.62370000  1.0
  C  C178  1  0.29690000  0.37990000  0.53950000  1.0
  C  C179  1  0.38490000  0.70120000  0.72950000  1.0
  C  C180  1  0.32410000  0.65040000  0.81300000  1.0
  C  C181  1  0.26910000  0.69930000  0.79850000  1.0
  C  C182  1  0.42960000  0.62420000  0.54020000  1.0
  C  C183  1  0.38120000  0.53910000  0.55160000  1.0
  C  C184  1  0.33030000  0.55860000  0.47170000  1.0
  C  C185  1  0.03860000  0.80540000  0.76540000  1.0
  C  C186  1  0.17720000  0.82870000  0.86580000  1.0
  C  C187  1  0.09230000  0.82580000  0.89840000  1.0
  C  C188  1  0.30220000  0.74700000  0.51340000  1.0
  C  C189  1  0.40950000  0.81730000  0.53370000  1.0
  C  C190  1  0.41740000  0.78810000  0.46390000  1.0
  C  C191  1  0.53480000  0.82800000  0.75220000  1.0
  C  C192  1  0.47250000  0.87710000  0.83880000  1.0
  C  C193  1  0.57980000  0.87120000  0.87200000  1.0
  C  C194  1  0.15990000  0.94860000  0.75750000  1.0
  C  C195  1  0.30240000  0.96950000  0.72260000  1.0
  C  C196  1  0.25500000  0.01800000  0.73650000  1.0
  C  C197  1  0.16960000  0.88480000  0.46530000  1.0
  C  C198  1  0.09480000  0.93070000  0.54590000  1.0
  C  C199  1  0.05050000  0.94610000  0.46220000  1.0
  C  C200  1  0.07110000  0.71500000  0.59980000  1.0
  C  C201  1  0.01530000  0.78420000  0.51350000  1.0
  C  C202  1  0.95260000  0.74230000  0.48240000  1.0
  C  C203  1  0.90430000  0.95740000  0.79790000  1.0
  C  C204  1  0.73800000  0.95990000  0.73180000  1.0
  C  C205  1  0.78250000  0.00990000  0.72010000  1.0
  C  C206  1  0.67370000  0.70110000  0.77920000  1.0
  C  C207  1  0.75860000  0.70640000  0.68500000  1.0
  C  C208  1  0.69840000  0.65890000  0.67020000  1.0
  C  C209  1  0.70220000  0.82620000  0.59850000  1.0
  C  C210  1  0.84800000  0.87220000  0.62370000  1.0
  C  C211  1  0.79690000  0.87990000  0.53950000  1.0
  C  C212  1  0.88490000  0.20120000  0.72950000  1.0
  C  C213  1  0.82410000  0.15040000  0.81300000  1.0
  C  C214  1  0.76910000  0.19930000  0.79850000  1.0
  C  C215  1  0.92960000  0.12420000  0.54020000  1.0
  C  C216  1  0.88120000  0.03910000  0.55160000  1.0
  C  C217  1  0.83030000  0.05860000  0.47170000  1.0
  C  C218  1  0.53860000  0.69460000  0.26540000  1.0
  C  C219  1  0.67720000  0.67130000  0.36580000  1.0
  C  C220  1  0.59230000  0.67420000  0.39840000  1.0
  C  C221  1  0.80220000  0.75300000  0.01340000  1.0
  C  C222  1  0.90950000  0.68270000  0.03370000  1.0
  C  C223  1  0.91740000  0.71190000  0.96390000  1.0
  C  C224  1  0.03480000  0.67200000  0.25220000  1.0
  C  C225  1  0.97250000  0.62290000  0.33880000  1.0
  C  C226  1  0.07980000  0.62880000  0.37200000  1.0
  C  C227  1  0.65990000  0.55140000  0.25750000  1.0
  C  C228  1  0.80240000  0.53050000  0.22260000  1.0
  C  C229  1  0.75500000  0.48200000  0.23650000  1.0
  C  C230  1  0.66960000  0.61520000  0.96530000  1.0
  C  C231  1  0.59480000  0.56930000  0.04590000  1.0
  C  C232  1  0.55050000  0.55390000  0.96220000  1.0
  C  C233  1  0.57110000  0.78500000  0.09980000  1.0
  C  C234  1  0.51530000  0.71580000  0.01350000  1.0
  C  C235  1  0.45260000  0.75770000  0.98240000  1.0
  C  C236  1  0.40430000  0.54260000  0.29790000  1.0
  C  C237  1  0.23800000  0.54010000  0.23180000  1.0
  C  C238  1  0.28250000  0.49010000  0.22010000  1.0
  C  C239  1  0.17370000  0.79890000  0.27920000  1.0
  C  C240  1  0.25860000  0.79360000  0.18500000  1.0
  C  C241  1  0.19840000  0.84110000  0.17020000  1.0
  C  C242  1  0.20220000  0.67380000  0.09850000  1.0
  C  C243  1  0.34800000  0.62780000  0.12370000  1.0
  C  C244  1  0.29690000  0.62010000  0.03950000  1.0
  C  C245  1  0.38490000  0.29880000  0.22950000  1.0
  C  C246  1  0.32410000  0.34960000  0.31300000  1.0
  C  C247  1  0.26910000  0.30070000  0.29850000  1.0
  C  C248  1  0.42960000  0.37580000  0.04020000  1.0
  C  C249  1  0.38120000  0.46090000  0.05160000  1.0
  C  C250  1  0.33030000  0.44140000  0.97170000  1.0
  C  C251  1  0.03860000  0.19460000  0.26540000  1.0
  C  C252  1  0.17720000  0.17130000  0.36580000  1.0
  C  C253  1  0.09230000  0.17420000  0.39840000  1.0
  C  C254  1  0.30220000  0.25300000  0.01340000  1.0
  C  C255  1  0.40950000  0.18270000  0.03370000  1.0
  C  C256  1  0.41740000  0.21190000  0.96390000  1.0
  C  C257  1  0.53480000  0.17200000  0.25220000  1.0
  C  C258  1  0.47250000  0.12290000  0.33880000  1.0
  C  C259  1  0.57980000  0.12880000  0.37200000  1.0
  C  C260  1  0.15990000  0.05140000  0.25750000  1.0
  C  C261  1  0.30240000  0.03050000  0.22260000  1.0
  C  C262  1  0.25500000  0.98200000  0.23650000  1.0
  C  C263  1  0.16960000  0.11520000  0.96530000  1.0
  C  C264  1  0.09480000  0.06930000  0.04590000  1.0
  C  C265  1  0.05050000  0.05390000  0.96220000  1.0
  C  C266  1  0.07110000  0.28500000  0.09980000  1.0
  C  C267  1  0.01530000  0.21580000  0.01350000  1.0
  C  C268  1  0.95260000  0.25770000  0.98240000  1.0
  C  C269  1  0.90430000  0.04260000  0.29790000  1.0
  C  C270  1  0.73800000  0.04010000  0.23180000  1.0
  C  C271  1  0.78250000  0.99010000  0.22010000  1.0
  C  C272  1  0.67370000  0.29890000  0.27920000  1.0
  C  C273  1  0.75860000  0.29360000  0.18500000  1.0
  C  C274  1  0.69840000  0.34110000  0.17020000  1.0
  C  C275  1  0.70220000  0.17380000  0.09850000  1.0
  C  C276  1  0.84800000  0.12780000  0.12370000  1.0
  C  C277  1  0.79690000  0.12010000  0.03950000  1.0
  C  C278  1  0.88490000  0.79880000  0.22950000  1.0
  C  C279  1  0.82410000  0.84960000  0.31300000  1.0
  C  C280  1  0.76910000  0.80070000  0.29850000  1.0
  C  C281  1  0.92960000  0.87580000  0.04020000  1.0
  C  C282  1  0.88120000  0.96090000  0.05160000  1.0
  C  C283  1  0.83030000  0.94140000  0.97170000  1.0
  N  N284  1  0.64370000  0.31670000  0.78030000  1.0
  N  N285  1  0.50250000  0.31130000  0.83240000  1.0
  N  N286  1  0.83490000  0.29030000  0.56690000  1.0
  N  N287  1  0.84930000  0.24270000  0.44960000  1.0
  N  N288  1  0.94230000  0.34930000  0.76020000  1.0
  N  N289  1  0.12140000  0.34140000  0.81760000  1.0
  N  N290  1  0.74170000  0.42440000  0.73660000  1.0
  N  N291  1  0.66450000  0.50550000  0.75850000  1.0
  N  N292  1  0.67310000  0.39060000  0.54860000  1.0
  N  N293  1  0.59810000  0.41720000  0.41120000  1.0
  N  N294  1  0.59200000  0.26900000  0.58630000  1.0
  N  N295  1  0.48470000  0.19620000  0.53800000  1.0
  N  N296  1  0.31750000  0.42590000  0.78290000  1.0
  N  N297  1  0.39210000  0.50840000  0.76260000  1.0
  N  N298  1  0.24420000  0.23390000  0.75520000  1.0
  N  N299  1  0.14260000  0.15500000  0.73110000  1.0
  N  N300  1  0.28780000  0.33670000  0.66090000  1.0
  N  N301  1  0.20420000  0.34930000  0.52360000  1.0
  N  N302  1  0.40020000  0.65100000  0.76930000  1.0
  N  N303  1  0.30820000  0.73250000  0.74400000  1.0
  N  N304  1  0.44440000  0.58050000  0.59790000  1.0
  N  N305  1  0.36190000  0.61380000  0.46300000  1.0
  N  N306  1  0.14370000  0.81670000  0.78030000  1.0
  N  N307  1  0.00250000  0.81130000  0.83240000  1.0
  N  N308  1  0.33490000  0.79030000  0.56690000  1.0
  N  N309  1  0.34930000  0.74270000  0.44960000  1.0
  N  N310  1  0.44230000  0.84930000  0.76020000  1.0
  N  N311  1  0.62140000  0.84140000  0.81760000  1.0
  N  N312  1  0.24170000  0.92440000  0.73660000  1.0
  N  N313  1  0.16450000  0.00550000  0.75850000  1.0
  N  N314  1  0.17310000  0.89060000  0.54860000  1.0
  N  N315  1  0.09810000  0.91720000  0.41120000  1.0
  N  N316  1  0.09200000  0.76900000  0.58630000  1.0
  N  N317  1  0.98470000  0.69620000  0.53800000  1.0
  N  N318  1  0.81750000  0.92590000  0.78290000  1.0
  N  N319  1  0.89210000  0.00840000  0.76260000  1.0
  N  N320  1  0.74420000  0.73390000  0.75520000  1.0
  N  N321  1  0.64260000  0.65500000  0.73110000  1.0
  N  N322  1  0.78780000  0.83670000  0.66090000  1.0
  N  N323  1  0.70420000  0.84930000  0.52360000  1.0
  N  N324  1  0.90020000  0.15100000  0.76930000  1.0
  N  N325  1  0.80820000  0.23250000  0.74400000  1.0
  N  N326  1  0.94440000  0.08050000  0.59790000  1.0
  N  N327  1  0.86190000  0.11380000  0.46300000  1.0
  N  N328  1  0.64370000  0.68330000  0.28030000  1.0
  N  N329  1  0.50250000  0.68870000  0.33240000  1.0
  N  N330  1  0.83490000  0.70970000  0.06690000  1.0
  N  N331  1  0.84930000  0.75730000  0.94960000  1.0
  N  N332  1  0.94230000  0.65070000  0.26020000  1.0
  N  N333  1  0.12140000  0.65860000  0.31760000  1.0
  N  N334  1  0.74170000  0.57560000  0.23660000  1.0
  N  N335  1  0.66450000  0.49450000  0.25850000  1.0
  N  N336  1  0.67310000  0.60940000  0.04860000  1.0
  N  N337  1  0.59810000  0.58280000  0.91120000  1.0
  N  N338  1  0.59200000  0.73100000  0.08630000  1.0
  N  N339  1  0.48470000  0.80380000  0.03800000  1.0
  N  N340  1  0.31750000  0.57410000  0.28290000  1.0
  N  N341  1  0.39210000  0.49160000  0.26260000  1.0
  N  N342  1  0.24420000  0.76610000  0.25520000  1.0
  N  N343  1  0.14260000  0.84500000  0.23110000  1.0
  N  N344  1  0.28780000  0.66330000  0.16090000  1.0
  N  N345  1  0.20420000  0.65070000  0.02360000  1.0
  N  N346  1  0.40020000  0.34900000  0.26930000  1.0
  N  N347  1  0.30820000  0.26750000  0.24400000  1.0
  N  N348  1  0.44440000  0.41950000  0.09790000  1.0
  N  N349  1  0.36190000  0.38620000  0.96300000  1.0
  N  N350  1  0.14370000  0.18330000  0.28030000  1.0
  N  N351  1  0.00250000  0.18870000  0.33240000  1.0
  N  N352  1  0.33490000  0.20970000  0.06690000  1.0
  N  N353  1  0.34930000  0.25730000  0.94960000  1.0
  N  N354  1  0.44230000  0.15070000  0.26020000  1.0
  N  N355  1  0.62140000  0.15860000  0.31760000  1.0
  N  N356  1  0.24170000  0.07560000  0.23660000  1.0
  N  N357  1  0.16450000  0.99450000  0.25850000  1.0
  N  N358  1  0.17310000  0.10940000  0.04860000  1.0
  N  N359  1  0.09810000  0.08280000  0.91120000  1.0
  N  N360  1  0.09200000  0.23100000  0.08630000  1.0
  N  N361  1  0.98470000  0.30380000  0.03800000  1.0
  N  N362  1  0.81750000  0.07410000  0.28290000  1.0
  N  N363  1  0.89210000  0.99160000  0.26260000  1.0
  N  N364  1  0.74420000  0.26610000  0.25520000  1.0
  N  N365  1  0.64260000  0.34500000  0.23110000  1.0
  N  N366  1  0.78780000  0.16330000  0.16090000  1.0
  N  N367  1  0.70420000  0.15070000  0.02360000  1.0
  N  N368  1  0.90020000  0.84900000  0.26930000  1.0
  N  N369  1  0.80820000  0.76750000  0.24400000  1.0
  N  N370  1  0.94440000  0.91950000  0.09790000  1.0
  N  N371  1  0.86190000  0.88620000  0.96300000  1.0
