# generated using pymatgen
data_ErH4(CO2)4
_symmetry_space_group_name_H-M   'P 1'
_cell_length_a   14.61630000
_cell_length_b   26.06250000
_cell_length_c   12.67840000
_cell_angle_alpha   90.00000000
_cell_angle_beta   105.04600000
_cell_angle_gamma   90.00000000
_symmetry_Int_Tables_number   1
_chemical_formula_structural   ErH4(CO2)4
_chemical_formula_sum   'Er16 H64 C64 O128'
_cell_volume   4664.10341582
_cell_formula_units_Z   16
loop_
 _symmetry_equiv_pos_site_id
 _symmetry_equiv_pos_as_xyz
  1  'x, y, z'
loop_
 _atom_site_type_symbol
 _atom_site_label
 _atom_site_symmetry_multiplicity
 _atom_site_fract_x
 _atom_site_fract_y
 _atom_site_fract_z
 _atom_site_occupancy
  Er  Er0  1  0.22533000  0.46538000  0.30476000  1.0
  Er  Er1  1  0.24874000  0.21581000  0.18151000  1.0
  Er  Er2  1  0.28169000  0.71437000  0.19605000  1.0
  Er  Er3  1  0.24379000  0.53473000  0.80814000  1.0
  Er  Er4  1  0.77467000  0.96538000  0.19524000  1.0
  Er  Er5  1  0.75126000  0.71581000  0.31849000  1.0
  Er  Er6  1  0.71831000  0.21437000  0.30395000  1.0
  Er  Er7  1  0.75621000  0.03473000  0.69186000  1.0
  Er  Er8  1  0.77467000  0.53462000  0.69524000  1.0
  Er  Er9  1  0.75126000  0.78419000  0.81849000  1.0
  Er  Er10  1  0.71831000  0.28563000  0.80395000  1.0
  Er  Er11  1  0.75621000  0.46527000  0.19186000  1.0
  Er  Er12  1  0.22533000  0.03462000  0.80476000  1.0
  Er  Er13  1  0.24874000  0.28419000  0.68151000  1.0
  Er  Er14  1  0.28169000  0.78563000  0.69605000  1.0
  Er  Er15  1  0.24379000  0.96527000  0.30814000  1.0
  H  H16  1  0.48180000  0.49420000  0.38560000  1.0
  H  H17  1  0.99850000  0.25780000  0.13060000  1.0
  H  H18  1  0.02700000  0.74440000  0.12070000  1.0
  H  H19  1  0.49470000  0.49430000  0.86610000  1.0
  H  H20  1  0.16180000  0.33910000  0.24470000  1.0
  H  H21  1  0.49890000  0.14660000  0.21100000  1.0
  H  H22  1  0.18790000  0.83330000  0.25770000  1.0
  H  H23  1  0.32910000  0.58090000  0.24940000  1.0
  H  H24  1  0.28410000  0.50630000  0.07710000  1.0
  H  H25  1  0.26670000  0.48580000  0.57270000  1.0
  H  H26  1  0.01050000  0.39730000  0.28130000  1.0
  H  H27  1  0.30350000  0.38010000  0.52060000  1.0
  H  H28  1  0.20780000  0.25790000  0.41130000  1.0
  H  H29  1  0.32920000  0.09090000  0.24330000  1.0
  H  H30  1  0.18780000  0.63710000  0.97060000  1.0
  H  H31  1  0.23830000  0.73620000  0.92330000  1.0
  H  H32  1  0.51820000  0.99420000  0.11440000  1.0
  H  H33  1  0.00150000  0.75780000  0.36940000  1.0
  H  H34  1  0.97300000  0.24440000  0.37930000  1.0
  H  H35  1  0.50530000  0.99430000  0.63390000  1.0
  H  H36  1  0.83820000  0.83910000  0.25530000  1.0
  H  H37  1  0.50110000  0.64660000  0.28900000  1.0
  H  H38  1  0.81210000  0.33333333  0.24230000  1.0
  H  H39  1  0.67090000  0.08090000  0.25060000  1.0
  H  H40  1  0.71590000  0.00630000  0.42290000  1.0
  H  H41  1  0.73330000  0.98580000  0.92730000  1.0
  H  H42  1  0.98950000  0.89730000  0.21870000  1.0
  H  H43  1  0.69650000  0.88010000  0.97940000  1.0
  H  H44  1  0.79220000  0.75790000  0.08870000  1.0
  H  H45  1  0.67080000  0.59090000  0.25670000  1.0
  H  H46  1  0.81220000  0.13710000  0.52940000  1.0
  H  H47  1  0.76170000  0.23620000  0.57670000  1.0
  H  H48  1  0.51820000  0.50580000  0.61440000  1.0
  H  H49  1  0.00150000  0.74220000  0.86940000  1.0
  H  H50  1  0.97300000  0.25560000  0.87930000  1.0
  H  H51  1  0.50530000  0.50570000  0.13390000  1.0
  H  H52  1  0.83820000  0.66090000  0.75530000  1.0
  H  H53  1  0.50110000  0.85340000  0.78900000  1.0
  H  H54  1  0.81210000  0.16670000  0.74230000  1.0
  H  H55  1  0.67090000  0.41910000  0.75060000  1.0
  H  H56  1  0.71590000  0.49370000  0.92290000  1.0
  H  H57  1  0.73330000  0.51420000  0.42730000  1.0
  H  H58  1  0.98950000  0.60270000  0.71870000  1.0
  H  H59  1  0.69650000  0.61990000  0.47940000  1.0
  H  H60  1  0.79220000  0.74210000  0.58870000  1.0
  H  H61  1  0.67080000  0.90910000  0.75670000  1.0
  H  H62  1  0.81220000  0.36290000  0.02940000  1.0
  H  H63  1  0.76170000  0.26380000  0.07670000  1.0
  H  H64  1  0.48180000  0.00580000  0.88560000  1.0
  H  H65  1  0.99850000  0.24220000  0.63060000  1.0
  H  H66  1  0.02700000  0.75560000  0.62070000  1.0
  H  H67  1  0.49470000  0.00570000  0.36610000  1.0
  H  H68  1  0.16180000  0.16090000  0.74470000  1.0
  H  H69  1  0.49890000  0.35340000  0.71100000  1.0
  H  H70  1  0.18790000  0.66666667  0.75770000  1.0
  H  H71  1  0.32910000  0.91910000  0.74940000  1.0
  H  H72  1  0.28410000  0.99370000  0.57710000  1.0
  H  H73  1  0.26670000  0.01420000  0.07270000  1.0
  H  H74  1  0.01050000  0.10270000  0.78130000  1.0
  H  H75  1  0.30350000  0.11990000  0.02060000  1.0
  H  H76  1  0.20780000  0.24210000  0.91130000  1.0
  H  H77  1  0.32920000  0.40910000  0.74330000  1.0
  H  H78  1  0.18780000  0.86290000  0.47060000  1.0
  H  H79  1  0.23830000  0.76380000  0.42330000  1.0
  C  C80  1  0.41740000  0.48380000  0.36370000  1.0
  C  C81  1  0.06230000  0.24680000  0.14170000  1.0
  C  C82  1  0.09150000  0.73410000  0.14220000  1.0
  C  C83  1  0.43050000  0.50480000  0.85180000  1.0
  C  C84  1  0.22610000  0.34130000  0.24250000  1.0
  C  C85  1  0.48570000  0.18110000  0.22700000  1.0
  C  C86  1  0.24840000  0.83980000  0.24570000  1.0
  C  C87  1  0.26800000  0.58910000  0.25750000  1.0
  C  C88  1  0.22520000  0.48960000  0.04770000  1.0
  C  C89  1  0.21630000  0.50940000  0.54650000  1.0
  C  C90  1  0.99570000  0.43080000  0.25230000  1.0
  C  C91  1  0.23700000  0.37510000  0.49510000  1.0
  C  C92  1  0.26590000  0.24040000  0.44030000  1.0
  C  C93  1  0.26560000  0.09180000  0.24890000  1.0
  C  C94  1  0.25200000  0.62670000  0.99760000  1.0
  C  C95  1  0.29230000  0.75710000  0.95260000  1.0
  C  C96  1  0.58260000  0.98380000  0.13630000  1.0
  C  C97  1  0.93770000  0.74680000  0.35830000  1.0
  C  C98  1  0.90850000  0.23410000  0.35780000  1.0
  C  C99  1  0.56950000  0.00480000  0.64820000  1.0
  C  C100  1  0.77390000  0.84130000  0.25750000  1.0
  C  C101  1  0.51430000  0.68110000  0.27300000  1.0
  C  C102  1  0.75160000  0.33980000  0.25430000  1.0
  C  C103  1  0.73200000  0.08910000  0.24250000  1.0
  C  C104  1  0.77480000  0.98960000  0.45230000  1.0
  C  C105  1  0.78370000  0.00940000  0.95350000  1.0
  C  C106  1  0.00430000  0.93080000  0.24770000  1.0
  C  C107  1  0.76300000  0.87510000  0.00490000  1.0
  C  C108  1  0.73410000  0.74040000  0.05970000  1.0
  C  C109  1  0.73440000  0.59180000  0.25110000  1.0
  C  C110  1  0.74800000  0.12670000  0.50240000  1.0
  C  C111  1  0.70770000  0.25710000  0.54740000  1.0
  C  C112  1  0.58260000  0.51620000  0.63630000  1.0
  C  C113  1  0.93770000  0.75320000  0.85830000  1.0
  C  C114  1  0.90850000  0.26590000  0.85780000  1.0
  C  C115  1  0.56950000  0.49520000  0.14820000  1.0
  C  C116  1  0.77390000  0.65870000  0.75750000  1.0
  C  C117  1  0.51430000  0.81890000  0.77300000  1.0
  C  C118  1  0.75160000  0.16020000  0.75430000  1.0
  C  C119  1  0.73200000  0.41090000  0.74250000  1.0
  C  C120  1  0.77480000  0.51040000  0.95230000  1.0
  C  C121  1  0.78370000  0.49060000  0.45350000  1.0
  C  C122  1  0.00430000  0.56920000  0.74770000  1.0
  C  C123  1  0.76300000  0.62490000  0.50490000  1.0
  C  C124  1  0.73410000  0.75960000  0.55970000  1.0
  C  C125  1  0.73440000  0.90820000  0.75110000  1.0
  C  C126  1  0.74800000  0.37330000  0.00240000  1.0
  C  C127  1  0.70770000  0.24290000  0.04740000  1.0
  C  C128  1  0.41740000  0.01620000  0.86370000  1.0
  C  C129  1  0.06230000  0.25320000  0.64170000  1.0
  C  C130  1  0.09150000  0.76590000  0.64220000  1.0
  C  C131  1  0.43050000  0.99520000  0.35180000  1.0
  C  C132  1  0.22610000  0.15870000  0.74250000  1.0
  C  C133  1  0.48570000  0.31890000  0.72700000  1.0
  C  C134  1  0.24840000  0.66020000  0.74570000  1.0
  C  C135  1  0.26800000  0.91090000  0.75750000  1.0
  C  C136  1  0.22520000  0.01040000  0.54770000  1.0
  C  C137  1  0.21630000  0.99060000  0.04650000  1.0
  C  C138  1  0.99570000  0.06920000  0.75230000  1.0
  C  C139  1  0.23700000  0.12490000  0.99510000  1.0
  C  C140  1  0.26590000  0.25960000  0.94030000  1.0
  C  C141  1  0.26560000  0.40820000  0.74890000  1.0
  C  C142  1  0.25200000  0.87330000  0.49760000  1.0
  C  C143  1  0.29230000  0.74290000  0.45260000  1.0
  O  O144  1  0.37560000  0.47070000  0.43410000  1.0
  O  O145  1  0.37500000  0.48310000  0.26590000  1.0
  O  O146  1  0.10360000  0.25512000  0.06850000  1.0
  O  O147  1  0.10170000  0.22478000  0.22830000  1.0
  O  O148  1  0.13110000  0.72030000  0.07190000  1.0
  O  O149  1  0.13400000  0.73475000  0.23910000  1.0
  O  O150  1  0.38860000  0.49960000  0.92390000  1.0
  O  O151  1  0.39100000  0.52367000  0.76000000  1.0
  O  O152  1  0.26370000  0.38480000  0.25190000  1.0
  O  O153  1  0.26670000  0.30108000  0.23040000  1.0
  O  O154  1  0.40050000  0.19241000  0.21220000  1.0
  O  O155  1  0.55380000  0.20886000  0.25940000  1.0
  O  O156  1  0.29670000  0.80205000  0.23080000  1.0
  O  O157  1  0.27450000  0.88471000  0.24570000  1.0
  O  O158  1  0.21540000  0.55303000  0.26630000  1.0
  O  O159  1  0.24680000  0.63508000  0.25860000  1.0
  O  O160  1  0.18700000  0.46793000  0.11250000  1.0
  O  O161  1  0.19140000  0.49103000  0.94670000  1.0
  O  O162  1  0.18410000  0.51278000  0.44480000  1.0
  O  O163  1  0.18840000  0.53382000  0.61540000  1.0
  O  O164  1  0.06310000  0.45692000  0.24670000  1.0
  O  O165  1  0.91060000  0.44186000  0.22530000  1.0
  O  O166  1  0.19220000  0.40598000  0.42730000  1.0
  O  O167  1  0.20230000  0.33819000  0.53260000  1.0
  O  O168  1  0.30260000  0.21706000  0.37610000  1.0
  O  O169  1  0.30220000  0.24204000  0.54250000  1.0
  O  O170  1  0.22850000  0.13384000  0.24410000  1.0
  O  O171  1  0.22920000  0.05014000  0.26030000  1.0
  O  O172  1  0.30230000  0.65262000  0.07260000  1.0
  O  O173  1  0.27730000  0.58902000  0.95500000  1.0
  O  O174  1  0.32240000  0.75930000  0.05360000  1.0
  O  O175  1  0.32780000  0.78028000  0.88730000  1.0
  O  O176  1  0.62440000  0.97070000  0.06590000  1.0
  O  O177  1  0.62500000  0.98310000  0.23410000  1.0
  O  O178  1  0.89640000  0.75512000  0.43150000  1.0
  O  O179  1  0.89830000  0.72478000  0.27170000  1.0
  O  O180  1  0.86890000  0.22030000  0.42810000  1.0
  O  O181  1  0.86600000  0.23475000  0.26090000  1.0
  O  O182  1  0.61140000  0.99960000  0.57610000  1.0
  O  O183  1  0.60900000  0.02367000  0.74000000  1.0
  O  O184  1  0.73630000  0.88480000  0.24810000  1.0
  O  O185  1  0.73330000  0.80108000  0.26960000  1.0
  O  O186  1  0.59950000  0.69241000  0.28780000  1.0
  O  O187  1  0.44620000  0.70886000  0.24060000  1.0
  O  O188  1  0.70330000  0.30205000  0.26920000  1.0
  O  O189  1  0.72550000  0.38471000  0.25430000  1.0
  O  O190  1  0.78460000  0.05303000  0.23370000  1.0
  O  O191  1  0.75320000  0.13508000  0.24140000  1.0
  O  O192  1  0.81300000  0.96793000  0.38750000  1.0
  O  O193  1  0.80860000  0.99103000  0.55330000  1.0
  O  O194  1  0.81590000  0.01278000  0.05520000  1.0
  O  O195  1  0.81160000  0.03382000  0.88460000  1.0
  O  O196  1  0.93690000  0.95692000  0.25330000  1.0
  O  O197  1  0.08940000  0.94186000  0.27470000  1.0
  O  O198  1  0.80780000  0.90598000  0.07270000  1.0
  O  O199  1  0.79770000  0.83819000  0.96740000  1.0
  O  O200  1  0.69740000  0.71706000  0.12390000  1.0
  O  O201  1  0.69780000  0.74204000  0.95750000  1.0
  O  O202  1  0.77150000  0.63384000  0.25590000  1.0
  O  O203  1  0.77080000  0.55014000  0.23970000  1.0
  O  O204  1  0.69770000  0.15262000  0.42740000  1.0
  O  O205  1  0.72270000  0.08902000  0.54500000  1.0
  O  O206  1  0.67760000  0.25930000  0.44640000  1.0
  O  O207  1  0.67220000  0.28028000  0.61270000  1.0
  O  O208  1  0.62440000  0.52930000  0.56590000  1.0
  O  O209  1  0.62500000  0.51690000  0.73410000  1.0
  O  O210  1  0.89640000  0.74488000  0.93150000  1.0
  O  O211  1  0.89830000  0.77522000  0.77170000  1.0
  O  O212  1  0.86890000  0.27970000  0.92810000  1.0
  O  O213  1  0.86600000  0.26525000  0.76090000  1.0
  O  O214  1  0.61140000  0.50040000  0.07610000  1.0
  O  O215  1  0.60900000  0.47633000  0.24000000  1.0
  O  O216  1  0.73630000  0.61520000  0.74810000  1.0
  O  O217  1  0.73330000  0.69892000  0.76960000  1.0
  O  O218  1  0.59950000  0.80759000  0.78780000  1.0
  O  O219  1  0.44620000  0.79114000  0.74060000  1.0
  O  O220  1  0.70330000  0.19795000  0.76920000  1.0
  O  O221  1  0.72550000  0.11529000  0.75430000  1.0
  O  O222  1  0.78460000  0.44697000  0.73370000  1.0
  O  O223  1  0.75320000  0.36492000  0.74140000  1.0
  O  O224  1  0.81300000  0.53207000  0.88750000  1.0
  O  O225  1  0.80860000  0.50897000  0.05330000  1.0
  O  O226  1  0.81590000  0.48722000  0.55520000  1.0
  O  O227  1  0.81160000  0.46618000  0.38460000  1.0
  O  O228  1  0.93690000  0.54308000  0.75330000  1.0
  O  O229  1  0.08940000  0.55814000  0.77470000  1.0
  O  O230  1  0.80780000  0.59402000  0.57270000  1.0
  O  O231  1  0.79770000  0.66181000  0.46740000  1.0
  O  O232  1  0.69740000  0.78294000  0.62390000  1.0
  O  O233  1  0.69780000  0.75796000  0.45750000  1.0
  O  O234  1  0.77150000  0.86616000  0.75590000  1.0
  O  O235  1  0.77080000  0.94986000  0.73970000  1.0
  O  O236  1  0.69770000  0.34738000  0.92740000  1.0
  O  O237  1  0.72270000  0.41098000  0.04500000  1.0
  O  O238  1  0.67760000  0.24070000  0.94640000  1.0
  O  O239  1  0.67220000  0.21972000  0.11270000  1.0
  O  O240  1  0.37560000  0.02930000  0.93410000  1.0
  O  O241  1  0.37500000  0.01690000  0.76590000  1.0
  O  O242  1  0.10360000  0.24488000  0.56850000  1.0
  O  O243  1  0.10170000  0.27522000  0.72830000  1.0
  O  O244  1  0.13110000  0.77970000  0.57190000  1.0
  O  O245  1  0.13400000  0.76525000  0.73910000  1.0
  O  O246  1  0.38860000  0.00040000  0.42390000  1.0
  O  O247  1  0.39100000  0.97633000  0.26000000  1.0
  O  O248  1  0.26370000  0.11520000  0.75190000  1.0
  O  O249  1  0.26670000  0.19892000  0.73040000  1.0
  O  O250  1  0.40050000  0.30759000  0.71220000  1.0
  O  O251  1  0.55380000  0.29114000  0.75940000  1.0
  O  O252  1  0.29670000  0.69795000  0.73080000  1.0
  O  O253  1  0.27450000  0.61529000  0.74570000  1.0
  O  O254  1  0.21540000  0.94697000  0.76630000  1.0
  O  O255  1  0.24680000  0.86492000  0.75860000  1.0
  O  O256  1  0.18700000  0.03207000  0.61250000  1.0
  O  O257  1  0.19140000  0.00897000  0.44670000  1.0
  O  O258  1  0.18410000  0.98722000  0.94480000  1.0
  O  O259  1  0.18840000  0.96618000  0.11540000  1.0
  O  O260  1  0.06310000  0.04308000  0.74670000  1.0
  O  O261  1  0.91060000  0.05814000  0.72530000  1.0
  O  O262  1  0.19220000  0.09402000  0.92730000  1.0
  O  O263  1  0.20230000  0.16181000  0.03260000  1.0
  O  O264  1  0.30260000  0.28294000  0.87610000  1.0
  O  O265  1  0.30220000  0.25796000  0.04250000  1.0
  O  O266  1  0.22850000  0.36616000  0.74410000  1.0
  O  O267  1  0.22920000  0.44986000  0.76030000  1.0
  O  O268  1  0.30230000  0.84738000  0.57260000  1.0
  O  O269  1  0.27730000  0.91098000  0.45500000  1.0
  O  O270  1  0.32240000  0.74070000  0.55360000  1.0
  O  O271  1  0.32780000  0.71972000  0.38730000  1.0
