# generated using pymatgen
data_ErH4(CO2)4
_symmetry_space_group_name_H-M   'P 1'
_cell_length_a   18.12660000
_cell_length_b   13.36110000
_cell_length_c   8.57910000
_cell_angle_alpha   90.00000000
_cell_angle_beta   90.00000000
_cell_angle_gamma   90.00000000
_symmetry_Int_Tables_number   1
_chemical_formula_structural   ErH4(CO2)4
_chemical_formula_sum   'Er8 H32 C32 O64'
_cell_volume   2077.78351275
_cell_formula_units_Z   8
loop_
 _symmetry_equiv_pos_site_id
 _symmetry_equiv_pos_as_xyz
  1  'x, y, z'
loop_
 _atom_site_type_symbol
 _atom_site_label
 _atom_site_symmetry_multiplicity
 _atom_site_fract_x
 _atom_site_fract_y
 _atom_site_fract_z
 _atom_site_occupancy
  Er  Er0  1  0.60093000  0.37468000  0.25300000  1.0
  Er  Er1  1  0.39368000  0.12462000  0.75275000  1.0
  Er  Er2  1  0.39907000  0.62532000  0.75300000  1.0
  Er  Er3  1  0.60632000  0.87538000  0.25275000  1.0
  Er  Er4  1  0.10093000  0.12532000  0.25300000  1.0
  Er  Er5  1  0.89368000  0.37538000  0.75275000  1.0
  Er  Er6  1  0.89907000  0.87468000  0.75300000  1.0
  Er  Er7  1  0.10632000  0.62462000  0.25275000  1.0
  H  H8  1  0.47280000  0.23910000  0.44650000  1.0
  H  H9  1  0.56600000  0.13140000  0.25830000  1.0
  H  H10  1  0.71470000  0.30380000  0.58290000  1.0
  H  H11  1  0.70600000  0.43940000  0.90540000  1.0
  H  H12  1  0.56700000  0.63060000  0.18920000  1.0
  H  H13  1  0.52740000  0.50220000  0.54340000  1.0
  H  H14  1  0.52750000  0.24550000  0.94860000  1.0
  H  H15  1  0.47500000  0.99880000  0.05100000  1.0
  H  H16  1  0.52720000  0.76090000  0.94650000  1.0
  H  H17  1  0.43400000  0.86860000  0.75830000  1.0
  H  H18  1  0.28530000  0.69620000  0.08290000  1.0
  H  H19  1  0.29400000  0.56060000  0.40540000  1.0
  H  H20  1  0.43300000  0.36940000  0.68920000  1.0
  H  H21  1  0.47260000  0.49780000  0.04340000  1.0
  H  H22  1  0.47250000  0.75450000  0.44860000  1.0
  H  H23  1  0.52500000  0.00120000  0.55100000  1.0
  H  H24  1  0.97280000  0.26090000  0.44650000  1.0
  H  H25  1  0.06600000  0.36860000  0.25830000  1.0
  H  H26  1  0.21470000  0.19620000  0.58290000  1.0
  H  H27  1  0.20600000  0.06060000  0.90540000  1.0
  H  H28  1  0.06700000  0.86940000  0.18920000  1.0
  H  H29  1  0.02740000  0.99780000  0.54340000  1.0
  H  H30  1  0.02750000  0.25450000  0.94860000  1.0
  H  H31  1  0.97500000  0.50120000  0.05100000  1.0
  H  H32  1  0.02720000  0.73910000  0.94650000  1.0
  H  H33  1  0.93400000  0.63140000  0.75830000  1.0
  H  H34  1  0.78530000  0.80380000  0.08290000  1.0
  H  H35  1  0.79400000  0.93940000  0.40540000  1.0
  H  H36  1  0.93300000  0.13060000  0.68920000  1.0
  H  H37  1  0.97260000  0.00220000  0.04340000  1.0
  H  H38  1  0.97250000  0.74550000  0.44860000  1.0
  H  H39  1  0.02500000  0.49880000  0.55100000  1.0
  C  C40  1  0.50860000  0.24840000  0.52280000  1.0
  C  C41  1  0.61720000  0.12940000  0.26500000  1.0
  C  C42  1  0.73560000  0.35610000  0.52660000  1.0
  C  C43  1  0.73240000  0.39470000  0.96700000  1.0
  C  C44  1  0.61710000  0.63000000  0.21270000  1.0
  C  C45  1  0.49030000  0.50810000  0.46920000  1.0
  C  C46  1  0.48940000  0.24630000  0.02130000  1.0
  C  C47  1  0.51270000  0.99990000  0.97760000  1.0
  C  C48  1  0.49140000  0.75160000  0.02280000  1.0
  C  C49  1  0.38280000  0.87060000  0.76500000  1.0
  C  C50  1  0.26440000  0.64390000  0.02660000  1.0
  C  C51  1  0.26760000  0.60530000  0.46700000  1.0
  C  C52  1  0.38290000  0.37000000  0.71270000  1.0
  C  C53  1  0.50970000  0.49190000  0.96920000  1.0
  C  C54  1  0.51060000  0.75370000  0.52130000  1.0
  C  C55  1  0.48730000  0.00010000  0.47760000  1.0
  C  C56  1  0.00860000  0.25160000  0.52280000  1.0
  C  C57  1  0.11720000  0.37060000  0.26500000  1.0
  C  C58  1  0.23560000  0.14390000  0.52660000  1.0
  C  C59  1  0.23240000  0.10530000  0.96700000  1.0
  C  C60  1  0.11710000  0.87000000  0.21270000  1.0
  C  C61  1  0.99030000  0.99190000  0.46920000  1.0
  C  C62  1  0.98940000  0.25370000  0.02130000  1.0
  C  C63  1  0.01270000  0.50010000  0.97760000  1.0
  C  C64  1  0.99140000  0.74840000  0.02280000  1.0
  C  C65  1  0.88280000  0.62940000  0.76500000  1.0
  C  C66  1  0.76440000  0.85610000  0.02660000  1.0
  C  C67  1  0.76760000  0.89470000  0.46700000  1.0
  C  C68  1  0.88290000  0.13000000  0.71270000  1.0
  C  C69  1  0.00970000  0.00810000  0.96920000  1.0
  C  C70  1  0.01060000  0.74630000  0.52130000  1.0
  C  C71  1  0.98730000  0.49990000  0.47760000  1.0
  O  O72  1  0.56310000  0.29920000  0.47940000  1.0
  O  O73  1  0.49470000  0.21010000  0.64420000  1.0
  O  O74  1  0.64840000  0.20450000  0.24790000  1.0
  O  O75  1  0.64810000  0.04050000  0.29190000  1.0
  O  O76  1  0.70010000  0.38580000  0.42080000  1.0
  O  O77  1  0.79210000  0.38260000  0.56970000  1.0
  O  O78  1  0.70370000  0.36520000  0.08590000  1.0
  O  O79  1  0.79410000  0.36950000  0.92210000  1.0
  O  O80  1  0.64780000  0.54050000  0.24840000  1.0
  O  O81  1  0.64800000  0.70580000  0.20900000  1.0
  O  O82  1  0.50300000  0.47010000  0.33040000  1.0
  O  O83  1  0.43570000  0.54910000  0.50720000  1.0
  O  O84  1  0.50450000  0.28050000  0.14400000  1.0
  O  O85  1  0.42700000  0.20980000  0.97400000  1.0
  O  O86  1  0.49710000  0.03750000  0.84350000  1.0
  O  O87  1  0.57060000  0.96660000  0.01700000  1.0
  O  O88  1  0.43690000  0.70080000  0.97940000  1.0
  O  O89  1  0.50530000  0.78990000  0.14420000  1.0
  O  O90  1  0.35160000  0.79550000  0.74790000  1.0
  O  O91  1  0.35190000  0.95950000  0.79190000  1.0
  O  O92  1  0.29990000  0.61420000  0.92080000  1.0
  O  O93  1  0.20790000  0.61740000  0.06970000  1.0
  O  O94  1  0.29630000  0.63480000  0.58590000  1.0
  O  O95  1  0.20590000  0.63050000  0.42210000  1.0
  O  O96  1  0.35220000  0.45950000  0.74840000  1.0
  O  O97  1  0.35200000  0.29420000  0.70900000  1.0
  O  O98  1  0.49700000  0.52990000  0.83040000  1.0
  O  O99  1  0.56430000  0.45090000  0.00720000  1.0
  O  O100  1  0.49550000  0.71950000  0.64400000  1.0
  O  O101  1  0.57300000  0.79020000  0.47400000  1.0
  O  O102  1  0.50290000  0.96250000  0.34350000  1.0
  O  O103  1  0.42940000  0.03340000  0.51700000  1.0
  O  O104  1  0.06310000  0.20080000  0.47940000  1.0
  O  O105  1  0.99470000  0.28990000  0.64420000  1.0
  O  O106  1  0.14840000  0.29550000  0.24790000  1.0
  O  O107  1  0.14810000  0.45950000  0.29190000  1.0
  O  O108  1  0.20010000  0.11420000  0.42080000  1.0
  O  O109  1  0.29210000  0.11740000  0.56970000  1.0
  O  O110  1  0.20370000  0.13480000  0.08590000  1.0
  O  O111  1  0.29410000  0.13050000  0.92210000  1.0
  O  O112  1  0.14780000  0.95950000  0.24840000  1.0
  O  O113  1  0.14800000  0.79420000  0.20900000  1.0
  O  O114  1  0.00300000  0.02990000  0.33040000  1.0
  O  O115  1  0.93570000  0.95090000  0.50720000  1.0
  O  O116  1  0.00450000  0.21950000  0.14400000  1.0
  O  O117  1  0.92700000  0.29020000  0.97400000  1.0
  O  O118  1  0.99710000  0.46250000  0.84350000  1.0
  O  O119  1  0.07060000  0.53340000  0.01700000  1.0
  O  O120  1  0.93690000  0.79920000  0.97940000  1.0
  O  O121  1  0.00530000  0.71010000  0.14420000  1.0
  O  O122  1  0.85160000  0.70450000  0.74790000  1.0
  O  O123  1  0.85190000  0.54050000  0.79190000  1.0
  O  O124  1  0.79990000  0.88580000  0.92080000  1.0
  O  O125  1  0.70790000  0.88260000  0.06970000  1.0
  O  O126  1  0.79630000  0.86520000  0.58590000  1.0
  O  O127  1  0.70590000  0.86950000  0.42210000  1.0
  O  O128  1  0.85220000  0.04050000  0.74840000  1.0
  O  O129  1  0.85200000  0.20580000  0.70900000  1.0
  O  O130  1  0.99700000  0.97010000  0.83040000  1.0
  O  O131  1  0.06430000  0.04910000  0.00720000  1.0
  O  O132  1  0.99550000  0.78050000  0.64400000  1.0
  O  O133  1  0.07300000  0.70980000  0.47400000  1.0
  O  O134  1  0.00290000  0.53750000  0.34350000  1.0
  O  O135  1  0.92940000  0.46660000  0.51700000  1.0
