# generated using pymatgen
data_Eu2H12C24ClO12
_symmetry_space_group_name_H-M   'P 1'
_cell_length_a   12.03170000
_cell_length_b   19.51500000
_cell_length_c   17.28340000
_cell_angle_alpha   90.00000000
_cell_angle_beta   122.33200000
_cell_angle_gamma   90.00000000
_symmetry_Int_Tables_number   1
_chemical_formula_structural   Eu2H12C24ClO12
_chemical_formula_sum   'Eu8 H48 C96 Cl4 O48'
_cell_volume   3428.96110246
_cell_formula_units_Z   4
loop_
 _symmetry_equiv_pos_site_id
 _symmetry_equiv_pos_as_xyz
  1  'x, y, z'
loop_
 _atom_site_type_symbol
 _atom_site_label
 _atom_site_symmetry_multiplicity
 _atom_site_fract_x
 _atom_site_fract_y
 _atom_site_fract_z
 _atom_site_occupancy
  Eu  Eu0  1  0.73544000  0.73014000  0.55654000  1.0
  Eu  Eu1  1  0.68554000  0.76747000  0.76588000  1.0
  Eu  Eu2  1  0.26456000  0.23014000  0.94346000  1.0
  Eu  Eu3  1  0.31446000  0.26747000  0.73412000  1.0
  Eu  Eu4  1  0.26456000  0.26986000  0.44346000  1.0
  Eu  Eu5  1  0.31446000  0.23253000  0.23412000  1.0
  Eu  Eu6  1  0.73544000  0.76986000  0.05654000  1.0
  Eu  Eu7  1  0.68554000  0.73253000  0.26588000  1.0
  H  H8  1  0.49490000  0.45290000  0.74460000  1.0
  H  H9  1  0.58900000  0.55930000  0.76100000  1.0
  H  H10  1  0.68790000  0.50640000  0.58240000  1.0
  H  H11  1  0.59430000  0.39980000  0.56540000  1.0
  H  H12  1  0.03370000  0.67690000  0.39780000  1.0
  H  H13  1  0.23350000  0.67220000  0.53500000  1.0
  H  H14  1  0.39870000  0.78040000  0.42580000  1.0
  H  H15  1  0.19960000  0.78460000  0.28850000  1.0
  H  H16  1  0.91600000  0.54760000  0.35740000  1.0
  H  H17  1  0.97080000  0.55460000  0.60610000  1.0
  H  H18  1  0.54930000  0.91260000  0.43300000  1.0
  H  H19  1  0.57330000  0.99410000  0.65380000  1.0
  H  H20  1  0.50510000  0.95290000  0.75540000  1.0
  H  H21  1  0.41100000  0.05930000  0.73900000  1.0
  H  H22  1  0.31210000  0.00640000  0.91760000  1.0
  H  H23  1  0.40570000  0.89980000  0.93460000  1.0
  H  H24  1  0.96630000  0.17690000  0.10220000  1.0
  H  H25  1  0.76650000  0.17220000  0.96500000  1.0
  H  H26  1  0.60130000  0.28040000  0.07420000  1.0
  H  H27  1  0.80040000  0.28460000  0.21150000  1.0
  H  H28  1  0.08400000  0.04760000  0.14260000  1.0
  H  H29  1  0.02920000  0.05460000  0.89390000  1.0
  H  H30  1  0.45070000  0.41260000  0.06700000  1.0
  H  H31  1  0.42670000  0.49410000  0.84620000  1.0
  H  H32  1  0.50510000  0.54710000  0.25540000  1.0
  H  H33  1  0.41100000  0.44070000  0.23900000  1.0
  H  H34  1  0.31210000  0.49360000  0.41760000  1.0
  H  H35  1  0.40570000  0.60020000  0.43460000  1.0
  H  H36  1  0.96630000  0.32310000  0.60220000  1.0
  H  H37  1  0.76650000  0.32780000  0.46500000  1.0
  H  H38  1  0.60130000  0.21960000  0.57420000  1.0
  H  H39  1  0.80040000  0.21540000  0.71150000  1.0
  H  H40  1  0.08400000  0.45240000  0.64260000  1.0
  H  H41  1  0.02920000  0.44540000  0.39390000  1.0
  H  H42  1  0.45070000  0.08740000  0.56700000  1.0
  H  H43  1  0.42670000  0.00590000  0.34620000  1.0
  H  H44  1  0.49490000  0.04710000  0.24460000  1.0
  H  H45  1  0.58900000  0.94070000  0.26100000  1.0
  H  H46  1  0.68790000  0.99360000  0.08240000  1.0
  H  H47  1  0.59430000  0.10020000  0.06540000  1.0
  H  H48  1  0.03370000  0.82310000  0.89780000  1.0
  H  H49  1  0.23350000  0.82780000  0.03500000  1.0
  H  H50  1  0.39870000  0.71960000  0.92580000  1.0
  H  H51  1  0.19960000  0.71540000  0.78850000  1.0
  H  H52  1  0.91600000  0.95240000  0.85740000  1.0
  H  H53  1  0.97080000  0.94540000  0.10610000  1.0
  H  H54  1  0.54930000  0.58740000  0.93300000  1.0
  H  H55  1  0.57330000  0.50590000  0.15380000  1.0
  C  C56  1  0.53610000  0.41520000  0.65400000  1.0
  C  C57  1  0.53420000  0.46340000  0.71220000  1.0
  C  C58  1  0.59020000  0.52710000  0.72170000  1.0
  C  C59  1  0.64860000  0.54340000  0.67350000  1.0
  C  C60  1  0.64930000  0.49560000  0.61530000  1.0
  C  C61  1  0.59340000  0.43170000  0.60500000  1.0
  C  C62  1  0.47410000  0.34660000  0.64380000  1.0
  C  C63  1  0.70760000  0.61300000  0.68420000  1.0
  C  C64  1  0.09530000  0.73270000  0.32990000  1.0
  C  C65  1  0.10680000  0.69830000  0.40350000  1.0
  C  C66  1  0.22640000  0.69550000  0.48560000  1.0
  C  C67  1  0.33540000  0.72740000  0.49460000  1.0
  C  C68  1  0.32500000  0.76000000  0.42040000  1.0
  C  C69  1  0.20590000  0.76270000  0.33850000  1.0
  C  C70  1  0.96550000  0.74010000  0.24210000  1.0
  C  C71  1  0.46090000  0.73020000  0.58640000  1.0
  C  C72  1  0.93150000  0.56160000  0.47730000  1.0
  C  C73  1  0.94980000  0.52860000  0.41520000  1.0
  C  C74  1  0.98230000  0.53270000  0.56300000  1.0
  C  C75  1  0.85770000  0.62790000  0.45350000  1.0
  C  C76  1  0.57160000  0.94360000  0.55130000  1.0
  C  C77  1  0.52920000  0.94760000  0.46000000  1.0
  C  C78  1  0.54360000  0.99630000  0.59190000  1.0
  C  C79  1  0.64580000  0.88100000  0.60610000  1.0
  C  C80  1  0.46390000  0.91520000  0.84600000  1.0
  C  C81  1  0.46580000  0.96340000  0.78780000  1.0
  C  C82  1  0.40980000  0.02710000  0.77830000  1.0
  C  C83  1  0.35140000  0.04340000  0.82650000  1.0
  C  C84  1  0.35070000  0.99560000  0.88470000  1.0
  C  C85  1  0.40660000  0.93170000  0.89500000  1.0
  C  C86  1  0.52590000  0.84660000  0.85620000  1.0
  C  C87  1  0.29240000  0.11300000  0.81580000  1.0
  C  C88  1  0.90470000  0.23270000  0.17010000  1.0
  C  C89  1  0.89320000  0.19830000  0.09650000  1.0
  C  C90  1  0.77360000  0.19550000  0.01440000  1.0
  C  C91  1  0.66460000  0.22740000  0.00540000  1.0
  C  C92  1  0.67500000  0.26000000  0.07960000  1.0
  C  C93  1  0.79410000  0.26270000  0.16150000  1.0
  C  C94  1  0.03450000  0.24010000  0.25790000  1.0
  C  C95  1  0.53910000  0.23020000  0.91360000  1.0
  C  C96  1  0.06850000  0.06160000  0.02270000  1.0
  C  C97  1  0.05020000  0.02860000  0.08480000  1.0
  C  C98  1  0.01770000  0.03270000  0.93700000  1.0
  C  C99  1  0.14230000  0.12790000  0.04650000  1.0
  C  C100  1  0.42840000  0.44360000  0.94870000  1.0
  C  C101  1  0.47080000  0.44760000  0.04000000  1.0
  C  C102  1  0.45640000  0.49630000  0.90810000  1.0
  C  C103  1  0.35420000  0.38100000  0.89390000  1.0
  C  C104  1  0.46390000  0.58480000  0.34600000  1.0
  C  C105  1  0.46580000  0.53660000  0.28780000  1.0
  C  C106  1  0.40980000  0.47290000  0.27830000  1.0
  C  C107  1  0.35140000  0.45660000  0.32650000  1.0
  C  C108  1  0.35070000  0.50440000  0.38470000  1.0
  C  C109  1  0.40660000  0.56830000  0.39500000  1.0
  C  C110  1  0.52590000  0.65340000  0.35620000  1.0
  C  C111  1  0.29240000  0.38700000  0.31580000  1.0
  C  C112  1  0.90470000  0.26730000  0.67010000  1.0
  C  C113  1  0.89320000  0.30170000  0.59650000  1.0
  C  C114  1  0.77360000  0.30450000  0.51440000  1.0
  C  C115  1  0.66460000  0.27260000  0.50540000  1.0
  C  C116  1  0.67500000  0.24000000  0.57960000  1.0
  C  C117  1  0.79410000  0.23730000  0.66150000  1.0
  C  C118  1  0.03450000  0.25990000  0.75790000  1.0
  C  C119  1  0.53910000  0.26980000  0.41360000  1.0
  C  C120  1  0.06850000  0.43840000  0.52270000  1.0
  C  C121  1  0.05020000  0.47140000  0.58480000  1.0
  C  C122  1  0.01770000  0.46730000  0.43700000  1.0
  C  C123  1  0.14230000  0.37210000  0.54650000  1.0
  C  C124  1  0.42840000  0.05640000  0.44870000  1.0
  C  C125  1  0.47080000  0.05240000  0.54000000  1.0
  C  C126  1  0.45640000  0.00370000  0.40810000  1.0
  C  C127  1  0.35420000  0.11900000  0.39390000  1.0
  C  C128  1  0.53610000  0.08480000  0.15400000  1.0
  C  C129  1  0.53420000  0.03660000  0.21220000  1.0
  C  C130  1  0.59020000  0.97290000  0.22170000  1.0
  C  C131  1  0.64860000  0.95660000  0.17350000  1.0
  C  C132  1  0.64930000  0.00440000  0.11530000  1.0
  C  C133  1  0.59340000  0.06830000  0.10500000  1.0
  C  C134  1  0.47410000  0.15340000  0.14380000  1.0
  C  C135  1  0.70760000  0.88700000  0.18420000  1.0
  C  C136  1  0.09530000  0.76730000  0.82990000  1.0
  C  C137  1  0.10680000  0.80170000  0.90350000  1.0
  C  C138  1  0.22640000  0.80450000  0.98560000  1.0
  C  C139  1  0.33540000  0.77260000  0.99460000  1.0
  C  C140  1  0.32500000  0.74000000  0.92040000  1.0
  C  C141  1  0.20590000  0.73730000  0.83850000  1.0
  C  C142  1  0.96550000  0.75990000  0.74210000  1.0
  C  C143  1  0.46090000  0.76980000  0.08640000  1.0
  C  C144  1  0.93150000  0.93840000  0.97730000  1.0
  C  C145  1  0.94980000  0.97140000  0.91520000  1.0
  C  C146  1  0.98230000  0.96730000  0.06300000  1.0
  C  C147  1  0.85770000  0.87210000  0.95350000  1.0
  C  C148  1  0.57160000  0.55640000  0.05130000  1.0
  C  C149  1  0.52920000  0.55240000  0.96000000  1.0
  C  C150  1  0.54360000  0.50370000  0.09190000  1.0
  C  C151  1  0.64580000  0.61900000  0.10610000  1.0
  Cl  Cl152  1  0.76445000  0.80849000  0.42863000  1.0
  Cl  Cl153  1  0.23555000  0.30849000  0.07137000  1.0
  Cl  Cl154  1  0.23555000  0.19151000  0.57137000  1.0
  Cl  Cl155  1  0.76445000  0.69151000  0.92863000  1.0
  O  O156  1  0.44590000  0.31177000  0.57450000  1.0
  O  O157  1  0.45710000  0.32708000  0.70510000  1.0
  O  O158  1  0.71210000  0.65130000  0.74390000  1.0
  O  O159  1  0.74880000  0.62847000  0.63380000  1.0
  O  O160  1  0.96250000  0.75100000  0.16990000  1.0
  O  O161  1  0.86240000  0.73581000  0.24340000  1.0
  O  O162  1  0.45790000  0.72680000  0.65700000  1.0
  O  O163  1  0.56790000  0.73933000  0.59030000  1.0
  O  O164  1  0.83560000  0.65258000  0.51030000  1.0
  O  O165  1  0.82430000  0.65444000  0.37830000  1.0
  O  O166  1  0.64250000  0.86825000  0.67570000  1.0
  O  O167  1  0.69990000  0.84567000  0.57530000  1.0
  O  O168  1  0.55410000  0.81177000  0.92550000  1.0
  O  O169  1  0.54290000  0.82708000  0.79490000  1.0
  O  O170  1  0.28790000  0.15130000  0.75610000  1.0
  O  O171  1  0.25120000  0.12847000  0.86620000  1.0
  O  O172  1  0.03750000  0.25100000  0.33010000  1.0
  O  O173  1  0.13760000  0.23581000  0.25660000  1.0
  O  O174  1  0.54210000  0.22680000  0.84300000  1.0
  O  O175  1  0.43210000  0.23933000  0.90970000  1.0
  O  O176  1  0.16440000  0.15258000  0.98970000  1.0
  O  O177  1  0.17570000  0.15444000  0.12170000  1.0
  O  O178  1  0.35750000  0.36825000  0.82430000  1.0
  O  O179  1  0.30010000  0.34567000  0.92470000  1.0
  O  O180  1  0.55410000  0.68823000  0.42550000  1.0
  O  O181  1  0.54290000  0.67292000  0.29490000  1.0
  O  O182  1  0.28790000  0.34870000  0.25610000  1.0
  O  O183  1  0.25120000  0.37153000  0.36620000  1.0
  O  O184  1  0.03750000  0.24900000  0.83010000  1.0
  O  O185  1  0.13760000  0.26419000  0.75660000  1.0
  O  O186  1  0.54210000  0.27320000  0.34300000  1.0
  O  O187  1  0.43210000  0.26067000  0.40970000  1.0
  O  O188  1  0.16440000  0.34742000  0.48970000  1.0
  O  O189  1  0.17570000  0.34556000  0.62170000  1.0
  O  O190  1  0.35750000  0.13175000  0.32430000  1.0
  O  O191  1  0.30010000  0.15433000  0.42470000  1.0
  O  O192  1  0.44590000  0.18823000  0.07450000  1.0
  O  O193  1  0.45710000  0.17292000  0.20510000  1.0
  O  O194  1  0.71210000  0.84870000  0.24390000  1.0
  O  O195  1  0.74880000  0.87153000  0.13380000  1.0
  O  O196  1  0.96250000  0.74900000  0.66990000  1.0
  O  O197  1  0.86240000  0.76419000  0.74340000  1.0
  O  O198  1  0.45790000  0.77320000  0.15700000  1.0
  O  O199  1  0.56790000  0.76067000  0.09030000  1.0
  O  O200  1  0.83560000  0.84742000  0.01030000  1.0
  O  O201  1  0.82430000  0.84556000  0.87830000  1.0
  O  O202  1  0.64250000  0.63175000  0.17570000  1.0
  O  O203  1  0.69990000  0.65433000  0.07530000  1.0
