# generated using pymatgen
data_Cu2Mo4H16C24N6O7
_symmetry_space_group_name_H-M   'P 1'
_cell_length_a   10.89810000
_cell_length_b   14.40920000
_cell_length_c   23.39020000
_cell_angle_alpha   80.69320000
_cell_angle_beta   76.52840000
_cell_angle_gamma   67.77990000
_symmetry_Int_Tables_number   1
_chemical_formula_structural   Cu2Mo4H16C24N6O7
_chemical_formula_sum   'Cu8 Mo16 H64 C96 N24 O28'
_cell_volume   3295.63211100
_cell_formula_units_Z   4
loop_
 _symmetry_equiv_pos_site_id
 _symmetry_equiv_pos_as_xyz
  1  'x, y, z'
loop_
 _atom_site_type_symbol
 _atom_site_label
 _atom_site_symmetry_multiplicity
 _atom_site_fract_x
 _atom_site_fract_y
 _atom_site_fract_z
 _atom_site_occupancy
  Cu  Cu0  1  0.64459000  0.80756000  0.10250000  1.0
  Cu  Cu1  1  0.34480000  0.93862000  0.13886000  1.0
  Cu  Cu2  1  0.55465000  0.69244000  0.39750000  1.0
  Cu  Cu3  1  0.42228000  0.56138000  0.36114000  1.0
  Cu  Cu4  1  0.35541000  0.19244000  0.89750000  1.0
  Cu  Cu5  1  0.65520000  0.06138000  0.86114000  1.0
  Cu  Cu6  1  0.44535000  0.30756000  0.60250000  1.0
  Cu  Cu7  1  0.57772000  0.43862000  0.63886000  1.0
  Mo  Mo8  1  0.14227000  0.53698000  0.97814000  1.0
  Mo  Mo9  1  0.10265000  0.38615000  0.13485000  1.0
  Mo  Mo10  1  0.98235000  0.62763000  0.10409000  1.0
  Mo  Mo11  1  0.89059000  0.74801000  0.96441000  1.0
  Mo  Mo12  1  0.65739000  0.96302000  0.52186000  1.0
  Mo  Mo13  1  0.62365000  0.11385000  0.36515000  1.0
  Mo  Mo14  1  0.71407000  0.87237000  0.39591000  1.0
  Mo  Mo15  1  0.60301000  0.75199000  0.53559000  1.0
  Mo  Mo16  1  0.85773000  0.46302000  0.02186000  1.0
  Mo  Mo17  1  0.89735000  0.61385000  0.86515000  1.0
  Mo  Mo18  1  0.01765000  0.37237000  0.89591000  1.0
  Mo  Mo19  1  0.10941000  0.25199000  0.03559000  1.0
  Mo  Mo20  1  0.34261000  0.03698000  0.47814000  1.0
  Mo  Mo21  1  0.37635000  0.88615000  0.63485000  1.0
  Mo  Mo22  1  0.28593000  0.12763000  0.60409000  1.0
  Mo  Mo23  1  0.39699000  0.24801000  0.46441000  1.0
  H  H24  1  0.59340000  0.73620000  0.00500000  1.0
  H  H25  1  0.47060000  0.64370000  0.98710000  1.0
  H  H26  1  0.34410000  0.58230000  0.06350000  1.0
  H  H27  1  0.33600000  0.62250000  0.15550000  1.0
  H  H28  1  0.67610000  0.53180000  0.16400000  1.0
  H  H29  1  0.77020000  0.36780000  0.16580000  1.0
  H  H30  1  0.72010000  0.26560000  0.24820000  1.0
  H  H31  1  0.56700000  0.34800000  0.32600000  1.0
  H  H32  1  0.71530000  0.87040000  0.19900000  1.0
  H  H33  1  0.67000000  0.01800000  0.24000000  1.0
  H  H34  1  0.55800000  0.18200000  0.19400000  1.0
  H  H35  1  0.52900000  0.16800000  0.10200000  1.0
  H  H36  1  0.78400000  0.06400000  0.04800000  1.0
  H  H37  1  0.95400000  0.11900000  0.01300000  1.0
  H  H38  1  0.01500000  0.15100000  0.90700000  1.0
  H  H39  1  0.89410000  0.12180000  0.84800000  1.0
  H  H40  1  0.33460000  0.76380000  0.49500000  1.0
  H  H41  1  0.10140000  0.85630000  0.51290000  1.0
  H  H42  1  0.98990000  0.91770000  0.43650000  1.0
  H  H43  1  0.11400000  0.87750000  0.34450000  1.0
  H  H44  1  0.37190000  0.96820000  0.33600000  1.0
  H  H45  1  0.30380000  0.13220000  0.33420000  1.0
  H  H46  1  0.23390000  0.23440000  0.25180000  1.0
  H  H47  1  0.24100000  0.15200000  0.17400000  1.0
  H  H48  1  0.78470000  0.62960000  0.30100000  1.0
  H  H49  1  0.92800000  0.48200000  0.26000000  1.0
  H  H50  1  0.93400000  0.31800000  0.30600000  1.0
  H  H51  1  0.79900000  0.33200000  0.39800000  1.0
  H  H52  1  0.89600000  0.43600000  0.45200000  1.0
  H  H53  1  0.08600000  0.38100000  0.48700000  1.0
  H  H54  1  0.07300000  0.34900000  0.59300000  1.0
  H  H55  1  0.86390000  0.37820000  0.65200000  1.0
  H  H56  1  0.40660000  0.26380000  0.99500000  1.0
  H  H57  1  0.52940000  0.35630000  0.01290000  1.0
  H  H58  1  0.65590000  0.41770000  0.93650000  1.0
  H  H59  1  0.66400000  0.37750000  0.84450000  1.0
  H  H60  1  0.32390000  0.46820000  0.83600000  1.0
  H  H61  1  0.22980000  0.63220000  0.83420000  1.0
  H  H62  1  0.27990000  0.73440000  0.75180000  1.0
  H  H63  1  0.43300000  0.65200000  0.67400000  1.0
  H  H64  1  0.28470000  0.12960000  0.80100000  1.0
  H  H65  1  0.33000000  0.98200000  0.76000000  1.0
  H  H66  1  0.44200000  0.81800000  0.80600000  1.0
  H  H67  1  0.47100000  0.83200000  0.89800000  1.0
  H  H68  1  0.21600000  0.93600000  0.95200000  1.0
  H  H69  1  0.04600000  0.88100000  0.98700000  1.0
  H  H70  1  0.98500000  0.84900000  0.09300000  1.0
  H  H71  1  0.10590000  0.87820000  0.15200000  1.0
  H  H72  1  0.66540000  0.23620000  0.50500000  1.0
  H  H73  1  0.89860000  0.14370000  0.48710000  1.0
  H  H74  1  0.01010000  0.08230000  0.56350000  1.0
  H  H75  1  0.88600000  0.12250000  0.65550000  1.0
  H  H76  1  0.62810000  0.03180000  0.66400000  1.0
  H  H77  1  0.69620000  0.86780000  0.66580000  1.0
  H  H78  1  0.76610000  0.76560000  0.74820000  1.0
  H  H79  1  0.75900000  0.84800000  0.82600000  1.0
  H  H80  1  0.21530000  0.37040000  0.69900000  1.0
  H  H81  1  0.07200000  0.51800000  0.74000000  1.0
  H  H82  1  0.06600000  0.68200000  0.69400000  1.0
  H  H83  1  0.20100000  0.66800000  0.60200000  1.0
  H  H84  1  0.10400000  0.56400000  0.54800000  1.0
  H  H85  1  0.91400000  0.61900000  0.51300000  1.0
  H  H86  1  0.92700000  0.65100000  0.40700000  1.0
  H  H87  1  0.13610000  0.62180000  0.34800000  1.0
  C  C88  1  0.53869000  0.71224000  0.03498000  1.0
  C  C89  1  0.46740000  0.65819000  0.02341000  1.0
  C  C90  1  0.39225000  0.61885000  0.07025000  1.0
  C  C91  1  0.39237000  0.63565000  0.12721000  1.0
  C  C92  1  0.46420000  0.69224000  0.13496000  1.0
  C  C93  1  0.45407000  0.71975000  0.19471000  1.0
  C  C94  1  0.47871000  0.65019000  0.24419000  1.0
  C  C95  1  0.55317000  0.54068000  0.24118000  1.0
  C  C96  1  0.64944000  0.49777000  0.19295000  1.0
  C  C97  1  0.71365000  0.39437000  0.19513000  1.0
  C  C98  1  0.68096000  0.33633000  0.24535000  1.0
  C  C99  1  0.58872000  0.38465000  0.29251000  1.0
  C  C100  1  0.67359000  0.93546000  0.18176000  1.0
  C  C101  1  0.65401000  0.02318000  0.20500000  1.0
  C  C102  1  0.59295000  0.11464000  0.17546000  1.0
  C  C103  1  0.55572000  0.11476000  0.12260000  1.0
  C  C104  1  0.58030000  0.02356000  0.10224000  1.0
  C  C105  1  0.54169000  0.01463000  0.04679000  1.0
  C  C106  1  0.60606000  0.03388000  0.98920000  1.0
  C  C107  1  0.72411000  0.06666000  0.97132000  1.0
  C  C108  1  0.79710000  0.07850000  0.00910000  1.0
  C  C109  1  0.90580000  0.10930000  0.98690000  1.0
  C  C110  1  0.94296000  0.12678000  0.92710000  1.0
  C  C111  1  0.86735000  0.11290000  0.89080000  1.0
  C  C112  1  0.28591000  0.78776000  0.46502000  1.0
  C  C113  1  0.14900000  0.84181000  0.47659000  1.0
  C  C114  1  0.08135000  0.88115000  0.42975000  1.0
  C  C115  1  0.15523000  0.86435000  0.37279000  1.0
  C  C116  1  0.29140000  0.80776000  0.36504000  1.0
  C  C117  1  0.36853000  0.78025000  0.30529000  1.0
  C  C118  1  0.37309000  0.84981000  0.25581000  1.0
  C  C119  1  0.33503000  0.95932000  0.25882000  1.0
  C  C120  1  0.34016000  0.00223000  0.30705000  1.0
  C  C121  1  0.30315000  0.10563000  0.30487000  1.0
  C  C122  1  0.26264000  0.16367000  0.25465000  1.0
  C  C123  1  0.26588000  0.11535000  0.20749000  1.0
  C  C124  1  0.79081000  0.56454000  0.31824000  1.0
  C  C125  1  0.88219000  0.47682000  0.29500000  1.0
  C  C126  1  0.88305000  0.38536000  0.32454000  1.0
  C  C127  1  0.79308000  0.38524000  0.37740000  1.0
  C  C128  1  0.70610000  0.47644000  0.39776000  1.0
  C  C129  1  0.60311000  0.48537000  0.45321000  1.0
  C  C130  1  0.62914000  0.46612000  0.51080000  1.0
  C  C131  1  0.76209000  0.43334000  0.52868000  1.0
  C  C132  1  0.88470000  0.42150000  0.49090000  1.0
  C  C133  1  0.00200000  0.39070000  0.51310000  1.0
  C  C134  1  0.99684000  0.37322000  0.57290000  1.0
  C  C135  1  0.87105000  0.38710000  0.60920000  1.0
  C  C136  1  0.46131000  0.28776000  0.96502000  1.0
  C  C137  1  0.53260000  0.34181000  0.97659000  1.0
  C  C138  1  0.60775000  0.38115000  0.92975000  1.0
  C  C139  1  0.60763000  0.36435000  0.87279000  1.0
  C  C140  1  0.53580000  0.30776000  0.86504000  1.0
  C  C141  1  0.54593000  0.28025000  0.80529000  1.0
  C  C142  1  0.52129000  0.34981000  0.75581000  1.0
  C  C143  1  0.44683000  0.45932000  0.75882000  1.0
  C  C144  1  0.35056000  0.50223000  0.80705000  1.0
  C  C145  1  0.28635000  0.60563000  0.80487000  1.0
  C  C146  1  0.31904000  0.66367000  0.75465000  1.0
  C  C147  1  0.41128000  0.61535000  0.70749000  1.0
  C  C148  1  0.32641000  0.06454000  0.81824000  1.0
  C  C149  1  0.34599000  0.97682000  0.79500000  1.0
  C  C150  1  0.40705000  0.88536000  0.82454000  1.0
  C  C151  1  0.44428000  0.88524000  0.87740000  1.0
  C  C152  1  0.41970000  0.97644000  0.89776000  1.0
  C  C153  1  0.45831000  0.98537000  0.95321000  1.0
  C  C154  1  0.39394000  0.96612000  0.01080000  1.0
  C  C155  1  0.27589000  0.93334000  0.02868000  1.0
  C  C156  1  0.20290000  0.92150000  0.99090000  1.0
  C  C157  1  0.09420000  0.89070000  0.01310000  1.0
  C  C158  1  0.05704000  0.87322000  0.07290000  1.0
  C  C159  1  0.13265000  0.88710000  0.10920000  1.0
  C  C160  1  0.71409000  0.21224000  0.53498000  1.0
  C  C161  1  0.85100000  0.15819000  0.52341000  1.0
  C  C162  1  0.91865000  0.11885000  0.57025000  1.0
  C  C163  1  0.84477000  0.13565000  0.62721000  1.0
  C  C164  1  0.70860000  0.19224000  0.63496000  1.0
  C  C165  1  0.63147000  0.21975000  0.69471000  1.0
  C  C166  1  0.62691000  0.15019000  0.74419000  1.0
  C  C167  1  0.66497000  0.04068000  0.74118000  1.0
  C  C168  1  0.65984000  0.99777000  0.69295000  1.0
  C  C169  1  0.69685000  0.89437000  0.69513000  1.0
  C  C170  1  0.73736000  0.83633000  0.74535000  1.0
  C  C171  1  0.73412000  0.88465000  0.79251000  1.0
  C  C172  1  0.20919000  0.43546000  0.68176000  1.0
  C  C173  1  0.11781000  0.52318000  0.70500000  1.0
  C  C174  1  0.11695000  0.61464000  0.67546000  1.0
  C  C175  1  0.20692000  0.61476000  0.62260000  1.0
  C  C176  1  0.29390000  0.52356000  0.60224000  1.0
  C  C177  1  0.39689000  0.51463000  0.54679000  1.0
  C  C178  1  0.37086000  0.53388000  0.48920000  1.0
  C  C179  1  0.23791000  0.56666000  0.47132000  1.0
  C  C180  1  0.11530000  0.57850000  0.50910000  1.0
  C  C181  1  0.99800000  0.60930000  0.48690000  1.0
  C  C182  1  0.00316000  0.62678000  0.42710000  1.0
  C  C183  1  0.12895000  0.61290000  0.39080000  1.0
  N  N184  1  0.53780000  0.73089000  0.08971000  1.0
  N  N185  1  0.52530000  0.48490000  0.29150000  1.0
  N  N186  1  0.40939000  0.81854000  0.20128000  1.0
  N  N187  1  0.63513000  0.93443000  0.13151000  1.0
  N  N188  1  0.43900000  0.98197000  0.05643000  1.0
  N  N189  1  0.76164000  0.08383000  0.91209000  1.0
  N  N190  1  0.35840000  0.76911000  0.41029000  1.0
  N  N191  1  0.30170000  0.01510000  0.20850000  1.0
  N  N192  1  0.42921000  0.68146000  0.29872000  1.0
  N  N193  1  0.70107000  0.56557000  0.36849000  1.0
  N  N194  1  0.47740000  0.51803000  0.44357000  1.0
  N  N195  1  0.75756000  0.41617000  0.58791000  1.0
  N  N196  1  0.46220000  0.26911000  0.91029000  1.0
  N  N197  1  0.47470000  0.51510000  0.70850000  1.0
  N  N198  1  0.59061000  0.18146000  0.79872000  1.0
  N  N199  1  0.36487000  0.06557000  0.86849000  1.0
  N  N200  1  0.56100000  0.01803000  0.94357000  1.0
  N  N201  1  0.23836000  0.91617000  0.08791000  1.0
  N  N202  1  0.64160000  0.23089000  0.58971000  1.0
  N  N203  1  0.69830000  0.98490000  0.79150000  1.0
  N  N204  1  0.57079000  0.31854000  0.70128000  1.0
  N  N205  1  0.29893000  0.43443000  0.63151000  1.0
  N  N206  1  0.52260000  0.48197000  0.55643000  1.0
  N  N207  1  0.24244000  0.58383000  0.41209000  1.0
  O  O208  1  0.13396000  0.50433000  0.05915000  1.0
  O  O209  1  0.82466000  0.71539000  0.12629000  1.0
  O  O210  1  0.02068000  0.67982000  0.01922000  1.0
  O  O211  1  0.75901000  0.81398000  0.01660000  1.0
  O  O212  1  0.78857000  0.71591000  0.92115000  1.0
  O  O213  1  0.95996000  0.51480000  0.15208000  1.0
  O  O214  1  0.02944000  0.61892000  0.92500000  1.0
  O  O215  1  0.69744000  0.99567000  0.44085000  1.0
  O  O216  1  0.66634000  0.78461000  0.37371000  1.0
  O  O217  1  0.71972000  0.82018000  0.48078000  1.0
  O  O218  1  0.58959000  0.68602000  0.48340000  1.0
  O  O219  1  0.42563000  0.78409000  0.57885000  1.0
  O  O220  1  0.62684000  0.98520000  0.34792000  1.0
  O  O221  1  0.57336000  0.88108000  0.57500000  1.0
  O  O222  1  0.86604000  0.49567000  0.94085000  1.0
  O  O223  1  0.17534000  0.28461000  0.87371000  1.0
  O  O224  1  0.97932000  0.32018000  0.98078000  1.0
  O  O225  1  0.24099000  0.18602000  0.98340000  1.0
  O  O226  1  0.21143000  0.28409000  0.07885000  1.0
  O  O227  1  0.04004000  0.48520000  0.84792000  1.0
  O  O228  1  0.97056000  0.38108000  0.07500000  1.0
  O  O229  1  0.30256000  0.00433000  0.55915000  1.0
  O  O230  1  0.33366000  0.21539000  0.62629000  1.0
  O  O231  1  0.28028000  0.17982000  0.51922000  1.0
  O  O232  1  0.41041000  0.31398000  0.51660000  1.0
  O  O233  1  0.57437000  0.21591000  0.42115000  1.0
  O  O234  1  0.37316000  0.01480000  0.65208000  1.0
  O  O235  1  0.42664000  0.11892000  0.42500000  1.0
