# generated using pymatgen
data_DyH12C24(NO)6
_symmetry_space_group_name_H-M   'P 1'
_cell_length_a   29.16200000
_cell_length_b   21.92400000
_cell_length_c   14.95500000
_cell_angle_alpha   90.00000000
_cell_angle_beta   103.38000000
_cell_angle_gamma   90.00000000
_symmetry_Int_Tables_number   1
_chemical_formula_structural   DyH12C24(NO)6
_chemical_formula_sum   'Dy8 H96 C192 N48 O48'
_cell_volume   9301.91564880
_cell_formula_units_Z   8
loop_
 _symmetry_equiv_pos_site_id
 _symmetry_equiv_pos_as_xyz
  1  'x, y, z'
loop_
 _atom_site_type_symbol
 _atom_site_label
 _atom_site_symmetry_multiplicity
 _atom_site_fract_x
 _atom_site_fract_y
 _atom_site_fract_z
 _atom_site_occupancy
  Dy  Dy0  1  0.23540000  0.75204000  0.32745000  1.0
  Dy  Dy1  1  0.73402000  0.26331000  0.90554000  1.0
  Dy  Dy2  1  0.76460000  0.25204000  0.17255000  1.0
  Dy  Dy3  1  0.26598000  0.76331000  0.59446000  1.0
  Dy  Dy4  1  0.76460000  0.24796000  0.67255000  1.0
  Dy  Dy5  1  0.26598000  0.73669000  0.09446000  1.0
  Dy  Dy6  1  0.23540000  0.74796000  0.82745000  1.0
  Dy  Dy7  1  0.73402000  0.23669000  0.40554000  1.0
  H  H8  1  0.91290000  0.17020000  0.83620000  1.0
  H  H9  1  0.97230000  0.14040000  0.95220000  1.0
  H  H10  1  0.92040000  0.24120000  0.12980000  1.0
  H  H11  1  0.85720000  0.27050000  0.00910000  1.0
  H  H12  1  0.14850000  0.97930000  0.14010000  1.0
  H  H13  1  0.19570000  0.90440000  0.11460000  1.0
  H  H14  1  0.13600000  0.90250000  0.84950000  1.0
  H  H15  1  0.08430000  0.97590000  0.86990000  1.0
  H  H16  1  0.15860000  0.04710000  0.47880000  1.0
  H  H17  1  0.21110000  0.97170000  0.53280000  1.0
  H  H18  1  0.14880000  0.86170000  0.32540000  1.0
  H  H19  1  0.09620000  0.93910000  0.27010000  1.0
  H  H20  1  0.41140000  0.67590000  0.56780000  1.0
  H  H21  1  0.47450000  0.63990000  0.50340000  1.0
  H  H22  1  0.42380000  0.74260000  0.28270000  1.0
  H  H23  1  0.36220000  0.77740000  0.34240000  1.0
  H  H24  1  0.60520000  0.44520000  0.33290000  1.0
  H  H25  1  0.65430000  0.36430000  0.33160000  1.0
  H  H26  1  0.72320000  0.46650000  0.18090000  1.0
  H  H27  1  0.67760000  0.54760000  0.19470000  1.0
  H  H28  1  0.64650000  0.48040000  0.51180000  1.0
  H  H29  1  0.69190000  0.40420000  0.59090000  1.0
  H  H30  1  0.61540000  0.40410000  0.77650000  1.0
  H  H31  1  0.56760000  0.47630000  0.69860000  1.0
  H  H32  1  0.08710000  0.67020000  0.66380000  1.0
  H  H33  1  0.02770000  0.64040000  0.54780000  1.0
  H  H34  1  0.07960000  0.74120000  0.37020000  1.0
  H  H35  1  0.14280000  0.77050000  0.49090000  1.0
  H  H36  1  0.85150000  0.47930000  0.35990000  1.0
  H  H37  1  0.80430000  0.40440000  0.38540000  1.0
  H  H38  1  0.86400000  0.40250000  0.65050000  1.0
  H  H39  1  0.91570000  0.47590000  0.63010000  1.0
  H  H40  1  0.84140000  0.54710000  0.02120000  1.0
  H  H41  1  0.78890000  0.47170000  0.96720000  1.0
  H  H42  1  0.85120000  0.36170000  0.17460000  1.0
  H  H43  1  0.90380000  0.43910000  0.22990000  1.0
  H  H44  1  0.58860000  0.17590000  0.93220000  1.0
  H  H45  1  0.52550000  0.13990000  0.99660000  1.0
  H  H46  1  0.57620000  0.24260000  0.21730000  1.0
  H  H47  1  0.63780000  0.27740000  0.15760000  1.0
  H  H48  1  0.39480000  0.94520000  0.16710000  1.0
  H  H49  1  0.34570000  0.86430000  0.16840000  1.0
  H  H50  1  0.27680000  0.96650000  0.31910000  1.0
  H  H51  1  0.32240000  0.04760000  0.30530000  1.0
  H  H52  1  0.35350000  0.98040000  0.98820000  1.0
  H  H53  1  0.30810000  0.90420000  0.90910000  1.0
  H  H54  1  0.38460000  0.90410000  0.72350000  1.0
  H  H55  1  0.43240000  0.97630000  0.80140000  1.0
  H  H56  1  0.08710000  0.82980000  0.16380000  1.0
  H  H57  1  0.02770000  0.85960000  0.04780000  1.0
  H  H58  1  0.07960000  0.75880000  0.87020000  1.0
  H  H59  1  0.14280000  0.72950000  0.99090000  1.0
  H  H60  1  0.85150000  0.02070000  0.85990000  1.0
  H  H61  1  0.80430000  0.09560000  0.88540000  1.0
  H  H62  1  0.86400000  0.09750000  0.15050000  1.0
  H  H63  1  0.91570000  0.02410000  0.13010000  1.0
  H  H64  1  0.84140000  0.95290000  0.52120000  1.0
  H  H65  1  0.78890000  0.02830000  0.46720000  1.0
  H  H66  1  0.85120000  0.13830000  0.67460000  1.0
  H  H67  1  0.90380000  0.06090000  0.72990000  1.0
  H  H68  1  0.58860000  0.32410000  0.43220000  1.0
  H  H69  1  0.52550000  0.36010000  0.49660000  1.0
  H  H70  1  0.57620000  0.25740000  0.71730000  1.0
  H  H71  1  0.63780000  0.22260000  0.65760000  1.0
  H  H72  1  0.39480000  0.55480000  0.66710000  1.0
  H  H73  1  0.34570000  0.63570000  0.66840000  1.0
  H  H74  1  0.27680000  0.53350000  0.81910000  1.0
  H  H75  1  0.32240000  0.45240000  0.80530000  1.0
  H  H76  1  0.35350000  0.51960000  0.48820000  1.0
  H  H77  1  0.30810000  0.59580000  0.40910000  1.0
  H  H78  1  0.38460000  0.59590000  0.22350000  1.0
  H  H79  1  0.43240000  0.52370000  0.30140000  1.0
  H  H80  1  0.91290000  0.32980000  0.33620000  1.0
  H  H81  1  0.97230000  0.35960000  0.45220000  1.0
  H  H82  1  0.92040000  0.25880000  0.62980000  1.0
  H  H83  1  0.85720000  0.22950000  0.50910000  1.0
  H  H84  1  0.14850000  0.52070000  0.64010000  1.0
  H  H85  1  0.19570000  0.59560000  0.61460000  1.0
  H  H86  1  0.13600000  0.59750000  0.34950000  1.0
  H  H87  1  0.08430000  0.52410000  0.36990000  1.0
  H  H88  1  0.15860000  0.45290000  0.97880000  1.0
  H  H89  1  0.21110000  0.52830000  0.03280000  1.0
  H  H90  1  0.14880000  0.63830000  0.82540000  1.0
  H  H91  1  0.09620000  0.56090000  0.77010000  1.0
  H  H92  1  0.41140000  0.82410000  0.06780000  1.0
  H  H93  1  0.47450000  0.86010000  0.00340000  1.0
  H  H94  1  0.42380000  0.75740000  0.78270000  1.0
  H  H95  1  0.36220000  0.72260000  0.84240000  1.0
  H  H96  1  0.60520000  0.05480000  0.83290000  1.0
  H  H97  1  0.65430000  0.13570000  0.83160000  1.0
  H  H98  1  0.72320000  0.03350000  0.68090000  1.0
  H  H99  1  0.67760000  0.95240000  0.69470000  1.0
  H  H100  1  0.64650000  0.01960000  0.01180000  1.0
  H  H101  1  0.69190000  0.09580000  0.09090000  1.0
  H  H102  1  0.61540000  0.09590000  0.27650000  1.0
  H  H103  1  0.56760000  0.02370000  0.19860000  1.0
  C  C104  1  0.83910000  0.24320000  0.83000000  1.0
  C  C105  1  0.87910000  0.22480000  0.91060000  1.0
  C  C106  1  0.91420000  0.18430000  0.89530000  1.0
  C  C107  1  0.94890000  0.16580000  0.96430000  1.0
  C  C108  1  0.95100000  0.18400000  0.05400000  1.0
  C  C109  1  0.91790000  0.22580000  0.07090000  1.0
  C  C110  1  0.88060000  0.24470000  0.99790000  1.0
  C  C111  1  0.01780000  0.12050000  0.14380000  1.0
  C  C112  1  0.06980000  0.06300000  0.24400000  1.0
  C  C113  1  0.06200000  0.05210000  0.09360000  1.0
  C  C114  1  0.10670000  0.98460000  0.01110000  1.0
  C  C115  1  0.14400000  0.96300000  0.08140000  1.0
  C  C116  1  0.17320000  0.91950000  0.06510000  1.0
  C  C117  1  0.17180000  0.89530000  0.97740000  1.0
  C  C118  1  0.13800000  0.91750000  0.90840000  1.0
  C  C119  1  0.10630000  0.96120000  0.92060000  1.0
  C  C120  1  0.20560000  0.84770000  0.96710000  1.0
  C  C121  1  0.12510000  0.00540000  0.35970000  1.0
  C  C122  1  0.15760000  0.01110000  0.44560000  1.0
  C  C123  1  0.18740000  0.96490000  0.48030000  1.0
  C  C124  1  0.18330000  0.90630000  0.43830000  1.0
  C  C125  1  0.15070000  0.89860000  0.35680000  1.0
  C  C126  1  0.12050000  0.94640000  0.32140000  1.0
  C  C127  1  0.21370000  0.85570000  0.48500000  1.0
  C  C128  1  0.33690000  0.73900000  0.49850000  1.0
  C  C129  1  0.38070000  0.72650000  0.46130000  1.0
  C  C130  1  0.41360000  0.68880000  0.50980000  1.0
  C  C131  1  0.45270000  0.66800000  0.47230000  1.0
  C  C132  1  0.45590000  0.69200000  0.38820000  1.0
  C  C133  1  0.42170000  0.72970000  0.34090000  1.0
  C  C134  1  0.38410000  0.74980000  0.37480000  1.0
  C  C135  1  0.52330000  0.62690000  0.36720000  1.0
  C  C136  1  0.56250000  0.55670000  0.46760000  1.0
  C  C137  1  0.58090000  0.57000000  0.33020000  1.0
  C  C138  1  0.63560000  0.50670000  0.26690000  1.0
  C  C139  1  0.63010000  0.45010000  0.30440000  1.0
  C  C140  1  0.65880000  0.40060000  0.30240000  1.0
  C  C141  1  0.69470000  0.40600000  0.25550000  1.0
  C  C142  1  0.70010000  0.46240000  0.21400000  1.0
  C  C143  1  0.67220000  0.51070000  0.22110000  1.0
  C  C144  1  0.60070000  0.48680000  0.59370000  1.0
  C  C145  1  0.63930000  0.46460000  0.56460000  1.0
  C  C146  1  0.66700000  0.41960000  0.61310000  1.0
  C  C147  1  0.65890000  0.39680000  0.69370000  1.0
  C  C148  1  0.62150000  0.41920000  0.72240000  1.0
  C  C149  1  0.59290000  0.46240000  0.67600000  1.0
  C  C150  1  0.68720000  0.34350000  0.74170000  1.0
  C  C151  1  0.72200000  0.35120000  0.24110000  1.0
  C  C152  1  0.16090000  0.74320000  0.67000000  1.0
  C  C153  1  0.12090000  0.72480000  0.58940000  1.0
  C  C154  1  0.08580000  0.68430000  0.60470000  1.0
  C  C155  1  0.05110000  0.66580000  0.53570000  1.0
  C  C156  1  0.04900000  0.68400000  0.44600000  1.0
  C  C157  1  0.08210000  0.72580000  0.42910000  1.0
  C  C158  1  0.11940000  0.74470000  0.50210000  1.0
  C  C159  1  0.98220000  0.62050000  0.35620000  1.0
  C  C160  1  0.93020000  0.56300000  0.25600000  1.0
  C  C161  1  0.93800000  0.55210000  0.40640000  1.0
  C  C162  1  0.89330000  0.48460000  0.48890000  1.0
  C  C163  1  0.85600000  0.46300000  0.41860000  1.0
  C  C164  1  0.82680000  0.41950000  0.43490000  1.0
  C  C165  1  0.82820000  0.39530000  0.52260000  1.0
  C  C166  1  0.86200000  0.41750000  0.59160000  1.0
  C  C167  1  0.89370000  0.46120000  0.57940000  1.0
  C  C168  1  0.79440000  0.34770000  0.53290000  1.0
  C  C169  1  0.87490000  0.50540000  0.14030000  1.0
  C  C170  1  0.84240000  0.51110000  0.05440000  1.0
  C  C171  1  0.81260000  0.46490000  0.01970000  1.0
  C  C172  1  0.81670000  0.40630000  0.06170000  1.0
  C  C173  1  0.84930000  0.39860000  0.14320000  1.0
  C  C174  1  0.87950000  0.44640000  0.17860000  1.0
  C  C175  1  0.78630000  0.35570000  0.01500000  1.0
  C  C176  1  0.66310000  0.23900000  0.00150000  1.0
  C  C177  1  0.61930000  0.22650000  0.03870000  1.0
  C  C178  1  0.58640000  0.18880000  0.99020000  1.0
  C  C179  1  0.54730000  0.16800000  0.02770000  1.0
  C  C180  1  0.54410000  0.19200000  0.11180000  1.0
  C  C181  1  0.57830000  0.22970000  0.15910000  1.0
  C  C182  1  0.61590000  0.24980000  0.12520000  1.0
  C  C183  1  0.47670000  0.12690000  0.13280000  1.0
  C  C184  1  0.43750000  0.05670000  0.03240000  1.0
  C  C185  1  0.41910000  0.07000000  0.16980000  1.0
  C  C186  1  0.36440000  0.00670000  0.23310000  1.0
  C  C187  1  0.36990000  0.95010000  0.19560000  1.0
  C  C188  1  0.34120000  0.90060000  0.19760000  1.0
  C  C189  1  0.30530000  0.90600000  0.24450000  1.0
  C  C190  1  0.29990000  0.96240000  0.28600000  1.0
  C  C191  1  0.32780000  0.01070000  0.27890000  1.0
  C  C192  1  0.39930000  0.98680000  0.90630000  1.0
  C  C193  1  0.36070000  0.96460000  0.93540000  1.0
  C  C194  1  0.33300000  0.91960000  0.88690000  1.0
  C  C195  1  0.34110000  0.89680000  0.80630000  1.0
  C  C196  1  0.37850000  0.91920000  0.77760000  1.0
  C  C197  1  0.40710000  0.96240000  0.82400000  1.0
  C  C198  1  0.31280000  0.84350000  0.75830000  1.0
  C  C199  1  0.27800000  0.85120000  0.25890000  1.0
  C  C200  1  0.16090000  0.75680000  0.17000000  1.0
  C  C201  1  0.12090000  0.77520000  0.08940000  1.0
  C  C202  1  0.08580000  0.81570000  0.10470000  1.0
  C  C203  1  0.05110000  0.83420000  0.03570000  1.0
  C  C204  1  0.04900000  0.81600000  0.94600000  1.0
  C  C205  1  0.08210000  0.77420000  0.92910000  1.0
  C  C206  1  0.11940000  0.75530000  0.00210000  1.0
  C  C207  1  0.98220000  0.87950000  0.85620000  1.0
  C  C208  1  0.93020000  0.93700000  0.75600000  1.0
  C  C209  1  0.93800000  0.94790000  0.90640000  1.0
  C  C210  1  0.89330000  0.01540000  0.98890000  1.0
  C  C211  1  0.85600000  0.03700000  0.91860000  1.0
  C  C212  1  0.82680000  0.08050000  0.93490000  1.0
  C  C213  1  0.82820000  0.10470000  0.02260000  1.0
  C  C214  1  0.86200000  0.08250000  0.09160000  1.0
  C  C215  1  0.89370000  0.03880000  0.07940000  1.0
  C  C216  1  0.79440000  0.15230000  0.03290000  1.0
  C  C217  1  0.87490000  0.99460000  0.64030000  1.0
  C  C218  1  0.84240000  0.98890000  0.55440000  1.0
  C  C219  1  0.81260000  0.03510000  0.51970000  1.0
  C  C220  1  0.81670000  0.09370000  0.56170000  1.0
  C  C221  1  0.84930000  0.10140000  0.64320000  1.0
  C  C222  1  0.87950000  0.05360000  0.67860000  1.0
  C  C223  1  0.78630000  0.14430000  0.51500000  1.0
  C  C224  1  0.66310000  0.26100000  0.50150000  1.0
  C  C225  1  0.61930000  0.27350000  0.53870000  1.0
  C  C226  1  0.58640000  0.31120000  0.49020000  1.0
  C  C227  1  0.54730000  0.33200000  0.52770000  1.0
  C  C228  1  0.54410000  0.30800000  0.61180000  1.0
  C  C229  1  0.57830000  0.27030000  0.65910000  1.0
  C  C230  1  0.61590000  0.25020000  0.62520000  1.0
  C  C231  1  0.47670000  0.37310000  0.63280000  1.0
  C  C232  1  0.43750000  0.44330000  0.53240000  1.0
  C  C233  1  0.41910000  0.43000000  0.66980000  1.0
  C  C234  1  0.36440000  0.49330000  0.73310000  1.0
  C  C235  1  0.36990000  0.54990000  0.69560000  1.0
  C  C236  1  0.34120000  0.59940000  0.69760000  1.0
  C  C237  1  0.30530000  0.59400000  0.74450000  1.0
  C  C238  1  0.29990000  0.53760000  0.78600000  1.0
  C  C239  1  0.32780000  0.48930000  0.77890000  1.0
  C  C240  1  0.39930000  0.51320000  0.40630000  1.0
  C  C241  1  0.36070000  0.53540000  0.43540000  1.0
  C  C242  1  0.33300000  0.58040000  0.38690000  1.0
  C  C243  1  0.34110000  0.60320000  0.30630000  1.0
  C  C244  1  0.37850000  0.58080000  0.27760000  1.0
  C  C245  1  0.40710000  0.53760000  0.32400000  1.0
  C  C246  1  0.31280000  0.65650000  0.25830000  1.0
  C  C247  1  0.27800000  0.64880000  0.75890000  1.0
  C  C248  1  0.83910000  0.25680000  0.33000000  1.0
  C  C249  1  0.87910000  0.27520000  0.41060000  1.0
  C  C250  1  0.91420000  0.31570000  0.39530000  1.0
  C  C251  1  0.94890000  0.33420000  0.46430000  1.0
  C  C252  1  0.95100000  0.31600000  0.55400000  1.0
  C  C253  1  0.91790000  0.27420000  0.57090000  1.0
  C  C254  1  0.88060000  0.25530000  0.49790000  1.0
  C  C255  1  0.01780000  0.37950000  0.64380000  1.0
  C  C256  1  0.06980000  0.43700000  0.74400000  1.0
  C  C257  1  0.06200000  0.44790000  0.59360000  1.0
  C  C258  1  0.10670000  0.51540000  0.51110000  1.0
  C  C259  1  0.14400000  0.53700000  0.58140000  1.0
  C  C260  1  0.17320000  0.58050000  0.56510000  1.0
  C  C261  1  0.17180000  0.60470000  0.47740000  1.0
  C  C262  1  0.13800000  0.58250000  0.40840000  1.0
  C  C263  1  0.10630000  0.53880000  0.42060000  1.0
  C  C264  1  0.20560000  0.65230000  0.46710000  1.0
  C  C265  1  0.12510000  0.49460000  0.85970000  1.0
  C  C266  1  0.15760000  0.48890000  0.94560000  1.0
  C  C267  1  0.18740000  0.53510000  0.98030000  1.0
  C  C268  1  0.18330000  0.59370000  0.93830000  1.0
  C  C269  1  0.15070000  0.60140000  0.85680000  1.0
  C  C270  1  0.12050000  0.55360000  0.82140000  1.0
  C  C271  1  0.21370000  0.64430000  0.98500000  1.0
  C  C272  1  0.33690000  0.76100000  0.99850000  1.0
  C  C273  1  0.38070000  0.77350000  0.96130000  1.0
  C  C274  1  0.41360000  0.81120000  0.00980000  1.0
  C  C275  1  0.45270000  0.83200000  0.97230000  1.0
  C  C276  1  0.45590000  0.80800000  0.88820000  1.0
  C  C277  1  0.42170000  0.77030000  0.84090000  1.0
  C  C278  1  0.38410000  0.75020000  0.87480000  1.0
  C  C279  1  0.52330000  0.87310000  0.86720000  1.0
  C  C280  1  0.56250000  0.94330000  0.96760000  1.0
  C  C281  1  0.58090000  0.93000000  0.83020000  1.0
  C  C282  1  0.63560000  0.99330000  0.76690000  1.0
  C  C283  1  0.63010000  0.04990000  0.80440000  1.0
  C  C284  1  0.65880000  0.09940000  0.80240000  1.0
  C  C285  1  0.69470000  0.09400000  0.75550000  1.0
  C  C286  1  0.70010000  0.03760000  0.71400000  1.0
  C  C287  1  0.67220000  0.98930000  0.72110000  1.0
  C  C288  1  0.60070000  0.01320000  0.09370000  1.0
  C  C289  1  0.63930000  0.03540000  0.06460000  1.0
  C  C290  1  0.66700000  0.08040000  0.11310000  1.0
  C  C291  1  0.65890000  0.10320000  0.19370000  1.0
  C  C292  1  0.62150000  0.08080000  0.22240000  1.0
  C  C293  1  0.59290000  0.03760000  0.17600000  1.0
  C  C294  1  0.68720000  0.15650000  0.24170000  1.0
  C  C295  1  0.72200000  0.14880000  0.74110000  1.0
  N  N296  1  0.98390000  0.16550000  0.13540000  1.0
  N  N297  1  0.07400000  0.02870000  0.01480000  1.0
  N  N298  1  0.09360000  0.05070000  0.33380000  1.0
  N  N299  1  0.03970000  0.10890000  0.23340000  1.0
  N  N300  1  0.08520000  0.03540000  0.17530000  1.0
  N  N301  1  0.02810000  0.09430000  0.07060000  1.0
  N  N302  1  0.49220000  0.67260000  0.34320000  1.0
  N  N303  1  0.54850000  0.61480000  0.30160000  1.0
  N  N304  1  0.60680000  0.55600000  0.26400000  1.0
  N  N305  1  0.59000000  0.54090000  0.41010000  1.0
  N  N306  1  0.53130000  0.59980000  0.44900000  1.0
  N  N307  1  0.56970000  0.52910000  0.55010000  1.0
  N  N308  1  0.01610000  0.66550000  0.36460000  1.0
  N  N309  1  0.92600000  0.52870000  0.48520000  1.0
  N  N310  1  0.90640000  0.55070000  0.16620000  1.0
  N  N311  1  0.96030000  0.60890000  0.26660000  1.0
  N  N312  1  0.91480000  0.53540000  0.32470000  1.0
  N  N313  1  0.97190000  0.59430000  0.42940000  1.0
  N  N314  1  0.50780000  0.17260000  0.15680000  1.0
  N  N315  1  0.45150000  0.11480000  0.19840000  1.0
  N  N316  1  0.39320000  0.05600000  0.23600000  1.0
  N  N317  1  0.41000000  0.04090000  0.08990000  1.0
  N  N318  1  0.46870000  0.09980000  0.05100000  1.0
  N  N319  1  0.43030000  0.02910000  0.94990000  1.0
  N  N320  1  0.01610000  0.83450000  0.86460000  1.0
  N  N321  1  0.92600000  0.97130000  0.98520000  1.0
  N  N322  1  0.90640000  0.94930000  0.66620000  1.0
  N  N323  1  0.96030000  0.89110000  0.76660000  1.0
  N  N324  1  0.91480000  0.96460000  0.82470000  1.0
  N  N325  1  0.97190000  0.90570000  0.92940000  1.0
  N  N326  1  0.50780000  0.32740000  0.65680000  1.0
  N  N327  1  0.45150000  0.38520000  0.69840000  1.0
  N  N328  1  0.39320000  0.44400000  0.73600000  1.0
  N  N329  1  0.41000000  0.45910000  0.58990000  1.0
  N  N330  1  0.46870000  0.40020000  0.55100000  1.0
  N  N331  1  0.43030000  0.47090000  0.44990000  1.0
  N  N332  1  0.98390000  0.33450000  0.63540000  1.0
  N  N333  1  0.07400000  0.47130000  0.51480000  1.0
  N  N334  1  0.09360000  0.44930000  0.83380000  1.0
  N  N335  1  0.03970000  0.39110000  0.73340000  1.0
  N  N336  1  0.08520000  0.46460000  0.67530000  1.0
  N  N337  1  0.02810000  0.40570000  0.57060000  1.0
  N  N338  1  0.49220000  0.82740000  0.84320000  1.0
  N  N339  1  0.54850000  0.88520000  0.80160000  1.0
  N  N340  1  0.60680000  0.94400000  0.76400000  1.0
  N  N341  1  0.59000000  0.95910000  0.91010000  1.0
  N  N342  1  0.53130000  0.90020000  0.94900000  1.0
  N  N343  1  0.56970000  0.97090000  0.05010000  1.0
  O  O344  1  0.80220000  0.26670000  0.84170000  1.0
  O  O345  1  0.84200000  0.22940000  0.75040000  1.0
  O  O346  1  0.20180000  0.82680000  0.88410000  1.0
  O  O347  1  0.23420000  0.82370000  0.03140000  1.0
  O  O348  1  0.21040000  0.80400000  0.45020000  1.0
  O  O349  1  0.24220000  0.86610000  0.55800000  1.0
  O  O350  1  0.30110000  0.76660000  0.44920000  1.0
  O  O351  1  0.33890000  0.72160000  0.57680000  1.0
  O  O352  1  0.72390000  0.32390000  0.71320000  1.0
  O  O353  1  0.67820000  0.32660000  0.81410000  1.0
  O  O354  1  0.71520000  0.30030000  0.27360000  1.0
  O  O355  1  0.75580000  0.35740000  0.20020000  1.0
  O  O356  1  0.19780000  0.76670000  0.65830000  1.0
  O  O357  1  0.15800000  0.72940000  0.74960000  1.0
  O  O358  1  0.79820000  0.32680000  0.61590000  1.0
  O  O359  1  0.76580000  0.32370000  0.46860000  1.0
  O  O360  1  0.78960000  0.30400000  0.04980000  1.0
  O  O361  1  0.75780000  0.36610000  0.94200000  1.0
  O  O362  1  0.69890000  0.26660000  0.05080000  1.0
  O  O363  1  0.66110000  0.22160000  0.92320000  1.0
  O  O364  1  0.27610000  0.82390000  0.78680000  1.0
  O  O365  1  0.32180000  0.82660000  0.68590000  1.0
  O  O366  1  0.28480000  0.80030000  0.22640000  1.0
  O  O367  1  0.24420000  0.85740000  0.29980000  1.0
  O  O368  1  0.19780000  0.73330000  0.15830000  1.0
  O  O369  1  0.15800000  0.77060000  0.24960000  1.0
  O  O370  1  0.79820000  0.17320000  0.11590000  1.0
  O  O371  1  0.76580000  0.17630000  0.96860000  1.0
  O  O372  1  0.78960000  0.19600000  0.54980000  1.0
  O  O373  1  0.75780000  0.13390000  0.44200000  1.0
  O  O374  1  0.69890000  0.23340000  0.55080000  1.0
  O  O375  1  0.66110000  0.27840000  0.42320000  1.0
  O  O376  1  0.27610000  0.67610000  0.28680000  1.0
  O  O377  1  0.32180000  0.67340000  0.18590000  1.0
  O  O378  1  0.28480000  0.69970000  0.72640000  1.0
  O  O379  1  0.24420000  0.64260000  0.79980000  1.0
  O  O380  1  0.80220000  0.23330000  0.34170000  1.0
  O  O381  1  0.84200000  0.27060000  0.25040000  1.0
  O  O382  1  0.20180000  0.67320000  0.38410000  1.0
  O  O383  1  0.23420000  0.67630000  0.53140000  1.0
  O  O384  1  0.21040000  0.69600000  0.95020000  1.0
  O  O385  1  0.24220000  0.63390000  0.05800000  1.0
  O  O386  1  0.30110000  0.73340000  0.94920000  1.0
  O  O387  1  0.33890000  0.77840000  0.07680000  1.0
  O  O388  1  0.72390000  0.17610000  0.21320000  1.0
  O  O389  1  0.67820000  0.17340000  0.31410000  1.0
  O  O390  1  0.71520000  0.19970000  0.77360000  1.0
  O  O391  1  0.75580000  0.14260000  0.70020000  1.0
