# generated using pymatgen
data_SmH7(C5O2)3
_symmetry_space_group_name_H-M   'P 1'
_cell_length_a   14.30900000
_cell_length_b   14.30900000
_cell_length_c   63.90000000
_cell_angle_alpha   90.00000000
_cell_angle_beta   90.00000000
_cell_angle_gamma   90.00000000
_symmetry_Int_Tables_number   1
_chemical_formula_structural   SmH7(C5O2)3
_chemical_formula_sum   'Sm24 H168 C360 O144'
_cell_volume   13083.36403590
_cell_formula_units_Z   24
loop_
 _symmetry_equiv_pos_site_id
 _symmetry_equiv_pos_as_xyz
  1  'x, y, z'
loop_
 _atom_site_type_symbol
 _atom_site_label
 _atom_site_symmetry_multiplicity
 _atom_site_fract_x
 _atom_site_fract_y
 _atom_site_fract_z
 _atom_site_occupancy
  Sm  Sm0  1  0.52019000  0.27694000  0.56202000  1.0
  Sm  Sm1  1  0.02019000  0.77694000  0.06202000  1.0
  Sm  Sm2  1  0.47981000  0.72306000  0.56202000  1.0
  Sm  Sm3  1  0.97981000  0.22306000  0.06202000  1.0
  Sm  Sm4  1  0.27694000  0.47981000  0.43798000  1.0
  Sm  Sm5  1  0.77694000  0.97981000  0.93798000  1.0
  Sm  Sm6  1  0.72306000  0.52019000  0.43798000  1.0
  Sm  Sm7  1  0.22306000  0.02019000  0.93798000  1.0
  Sm  Sm8  1  0.97981000  0.27694000  0.18798000  1.0
  Sm  Sm9  1  0.47981000  0.77694000  0.68798000  1.0
  Sm  Sm10  1  0.02019000  0.72306000  0.18798000  1.0
  Sm  Sm11  1  0.52019000  0.22306000  0.68798000  1.0
  Sm  Sm12  1  0.22306000  0.47981000  0.31202000  1.0
  Sm  Sm13  1  0.72306000  0.97981000  0.81202000  1.0
  Sm  Sm14  1  0.77694000  0.52019000  0.31202000  1.0
  Sm  Sm15  1  0.27694000  0.02019000  0.81202000  1.0
  Sm  Sm16  1  0.00000000  0.50000000  0.45983000  1.0
  Sm  Sm17  1  0.50000000  0.00000000  0.95983000  1.0
  Sm  Sm18  1  0.50000000  0.00000000  0.54017000  1.0
  Sm  Sm19  1  0.00000000  0.50000000  0.04017000  1.0
  Sm  Sm20  1  0.50000000  0.50000000  0.29017000  1.0
  Sm  Sm21  1  0.00000000  0.00000000  0.79017000  1.0
  Sm  Sm22  1  0.00000000  0.00000000  0.20983000  1.0
  Sm  Sm23  1  0.50000000  0.50000000  0.70983000  1.0
  H  H24  1  0.69770000  0.32300000  0.49980000  1.0
  H  H25  1  0.82780000  0.03990000  0.48310000  1.0
  H  H26  1  0.71920000  0.05070000  0.51030000  1.0
  H  H27  1  0.81780000  0.24100000  0.43580000  1.0
  H  H28  1  0.87500000  0.46250000  0.38520000  1.0
  H  H29  1  0.86210000  0.22590000  0.35250000  1.0
  H  H30  1  0.89920000  0.14280000  0.38120000  1.0
  H  H31  1  0.05570000  0.14260000  0.41190000  1.0
  H  H32  1  0.09490000  0.07750000  0.44390000  1.0
  H  H33  1  0.99500000  0.09190000  0.47180000  1.0
  H  H34  1  0.19770000  0.82300000  0.99980000  1.0
  H  H35  1  0.32780000  0.53990000  0.98310000  1.0
  H  H36  1  0.21920000  0.55070000  0.01030000  1.0
  H  H37  1  0.31780000  0.74100000  0.93580000  1.0
  H  H38  1  0.37500000  0.96250000  0.88520000  1.0
  H  H39  1  0.36210000  0.72590000  0.85250000  1.0
  H  H40  1  0.39920000  0.64280000  0.88120000  1.0
  H  H41  1  0.55570000  0.64260000  0.91190000  1.0
  H  H42  1  0.59490000  0.57750000  0.94390000  1.0
  H  H43  1  0.49500000  0.59190000  0.97180000  1.0
  H  H44  1  0.30230000  0.67700000  0.49980000  1.0
  H  H45  1  0.17220000  0.96010000  0.48310000  1.0
  H  H46  1  0.28080000  0.94930000  0.51030000  1.0
  H  H47  1  0.18220000  0.75900000  0.43580000  1.0
  H  H48  1  0.12500000  0.53750000  0.38520000  1.0
  H  H49  1  0.13790000  0.77410000  0.35250000  1.0
  H  H50  1  0.10080000  0.85720000  0.38120000  1.0
  H  H51  1  0.94430000  0.85740000  0.41190000  1.0
  H  H52  1  0.90510000  0.92250000  0.44390000  1.0
  H  H53  1  0.00500000  0.90810000  0.47180000  1.0
  H  H54  1  0.80230000  0.17700000  0.99980000  1.0
  H  H55  1  0.67220000  0.46010000  0.98310000  1.0
  H  H56  1  0.78080000  0.44930000  0.01030000  1.0
  H  H57  1  0.68220000  0.25900000  0.93580000  1.0
  H  H58  1  0.62500000  0.03750000  0.88520000  1.0
  H  H59  1  0.63790000  0.27410000  0.85250000  1.0
  H  H60  1  0.60080000  0.35720000  0.88120000  1.0
  H  H61  1  0.44430000  0.35740000  0.91190000  1.0
  H  H62  1  0.40510000  0.42250000  0.94390000  1.0
  H  H63  1  0.50500000  0.40810000  0.97180000  1.0
  H  H64  1  0.32300000  0.30230000  0.50020000  1.0
  H  H65  1  0.03990000  0.17220000  0.51690000  1.0
  H  H66  1  0.05070000  0.28080000  0.48970000  1.0
  H  H67  1  0.24100000  0.18220000  0.56420000  1.0
  H  H68  1  0.46250000  0.12500000  0.61480000  1.0
  H  H69  1  0.22590000  0.13790000  0.64750000  1.0
  H  H70  1  0.14280000  0.10080000  0.61880000  1.0
  H  H71  1  0.14260000  0.94430000  0.58810000  1.0
  H  H72  1  0.07750000  0.90510000  0.55610000  1.0
  H  H73  1  0.09190000  0.00500000  0.52820000  1.0
  H  H74  1  0.82300000  0.80230000  0.00020000  1.0
  H  H75  1  0.53990000  0.67220000  0.01690000  1.0
  H  H76  1  0.55070000  0.78080000  0.98970000  1.0
  H  H77  1  0.74100000  0.68220000  0.06420000  1.0
  H  H78  1  0.96250000  0.62500000  0.11480000  1.0
  H  H79  1  0.72590000  0.63790000  0.14750000  1.0
  H  H80  1  0.64280000  0.60080000  0.11880000  1.0
  H  H81  1  0.64260000  0.44430000  0.08810000  1.0
  H  H82  1  0.57750000  0.40510000  0.05610000  1.0
  H  H83  1  0.59190000  0.50500000  0.02820000  1.0
  H  H84  1  0.67700000  0.69770000  0.50020000  1.0
  H  H85  1  0.96010000  0.82780000  0.51690000  1.0
  H  H86  1  0.94930000  0.71920000  0.48970000  1.0
  H  H87  1  0.75900000  0.81780000  0.56420000  1.0
  H  H88  1  0.53750000  0.87500000  0.61480000  1.0
  H  H89  1  0.77410000  0.86210000  0.64750000  1.0
  H  H90  1  0.85720000  0.89920000  0.61880000  1.0
  H  H91  1  0.85740000  0.05570000  0.58810000  1.0
  H  H92  1  0.92250000  0.09490000  0.55610000  1.0
  H  H93  1  0.90810000  0.99500000  0.52820000  1.0
  H  H94  1  0.17700000  0.19770000  0.00020000  1.0
  H  H95  1  0.46010000  0.32780000  0.01690000  1.0
  H  H96  1  0.44930000  0.21920000  0.98970000  1.0
  H  H97  1  0.25900000  0.31780000  0.06420000  1.0
  H  H98  1  0.03750000  0.37500000  0.11480000  1.0
  H  H99  1  0.27410000  0.36210000  0.14750000  1.0
  H  H100  1  0.35720000  0.39920000  0.11880000  1.0
  H  H101  1  0.35740000  0.55570000  0.08810000  1.0
  H  H102  1  0.42250000  0.59490000  0.05610000  1.0
  H  H103  1  0.40810000  0.49500000  0.02820000  1.0
  H  H104  1  0.80230000  0.32300000  0.25020000  1.0
  H  H105  1  0.67220000  0.03990000  0.26690000  1.0
  H  H106  1  0.78080000  0.05070000  0.23970000  1.0
  H  H107  1  0.68220000  0.24100000  0.31420000  1.0
  H  H108  1  0.62500000  0.46250000  0.36480000  1.0
  H  H109  1  0.63790000  0.22590000  0.39750000  1.0
  H  H110  1  0.60080000  0.14280000  0.36880000  1.0
  H  H111  1  0.44430000  0.14260000  0.33810000  1.0
  H  H112  1  0.40510000  0.07750000  0.30610000  1.0
  H  H113  1  0.50500000  0.09190000  0.27820000  1.0
  H  H114  1  0.30230000  0.82300000  0.75020000  1.0
  H  H115  1  0.17220000  0.53990000  0.76690000  1.0
  H  H116  1  0.28080000  0.55070000  0.73970000  1.0
  H  H117  1  0.18220000  0.74100000  0.81420000  1.0
  H  H118  1  0.12500000  0.96250000  0.86480000  1.0
  H  H119  1  0.13790000  0.72590000  0.89750000  1.0
  H  H120  1  0.10080000  0.64280000  0.86880000  1.0
  H  H121  1  0.94430000  0.64260000  0.83810000  1.0
  H  H122  1  0.90510000  0.57750000  0.80610000  1.0
  H  H123  1  0.00500000  0.59190000  0.77820000  1.0
  H  H124  1  0.19770000  0.67700000  0.25020000  1.0
  H  H125  1  0.32780000  0.96010000  0.26690000  1.0
  H  H126  1  0.21920000  0.94930000  0.23970000  1.0
  H  H127  1  0.31780000  0.75900000  0.31420000  1.0
  H  H128  1  0.37500000  0.53750000  0.36480000  1.0
  H  H129  1  0.36210000  0.77410000  0.39750000  1.0
  H  H130  1  0.39920000  0.85720000  0.36880000  1.0
  H  H131  1  0.55570000  0.85740000  0.33810000  1.0
  H  H132  1  0.59490000  0.92250000  0.30610000  1.0
  H  H133  1  0.49500000  0.90810000  0.27820000  1.0
  H  H134  1  0.69770000  0.17700000  0.75020000  1.0
  H  H135  1  0.82780000  0.46010000  0.76690000  1.0
  H  H136  1  0.71920000  0.44930000  0.73970000  1.0
  H  H137  1  0.81780000  0.25900000  0.81420000  1.0
  H  H138  1  0.87500000  0.03750000  0.86480000  1.0
  H  H139  1  0.86210000  0.27410000  0.89750000  1.0
  H  H140  1  0.89920000  0.35720000  0.86880000  1.0
  H  H141  1  0.05570000  0.35740000  0.83810000  1.0
  H  H142  1  0.09490000  0.42250000  0.80610000  1.0
  H  H143  1  0.99500000  0.40810000  0.77820000  1.0
  H  H144  1  0.17700000  0.30230000  0.24980000  1.0
  H  H145  1  0.46010000  0.17220000  0.23310000  1.0
  H  H146  1  0.44930000  0.28080000  0.26030000  1.0
  H  H147  1  0.25900000  0.18220000  0.18580000  1.0
  H  H148  1  0.03750000  0.12500000  0.13520000  1.0
  H  H149  1  0.27410000  0.13790000  0.10250000  1.0
  H  H150  1  0.35720000  0.10080000  0.13120000  1.0
  H  H151  1  0.35740000  0.94430000  0.16190000  1.0
  H  H152  1  0.42250000  0.90510000  0.19390000  1.0
  H  H153  1  0.40810000  0.00500000  0.22180000  1.0
  H  H154  1  0.67700000  0.80230000  0.74980000  1.0
  H  H155  1  0.96010000  0.67220000  0.73310000  1.0
  H  H156  1  0.94930000  0.78080000  0.76030000  1.0
  H  H157  1  0.75900000  0.68220000  0.68580000  1.0
  H  H158  1  0.53750000  0.62500000  0.63520000  1.0
  H  H159  1  0.77410000  0.63790000  0.60250000  1.0
  H  H160  1  0.85720000  0.60080000  0.63120000  1.0
  H  H161  1  0.85740000  0.44430000  0.66190000  1.0
  H  H162  1  0.92250000  0.40510000  0.69390000  1.0
  H  H163  1  0.90810000  0.50500000  0.72180000  1.0
  H  H164  1  0.82300000  0.69770000  0.24980000  1.0
  H  H165  1  0.53990000  0.82780000  0.23310000  1.0
  H  H166  1  0.55070000  0.71920000  0.26030000  1.0
  H  H167  1  0.74100000  0.81780000  0.18580000  1.0
  H  H168  1  0.96250000  0.87500000  0.13520000  1.0
  H  H169  1  0.72590000  0.86210000  0.10250000  1.0
  H  H170  1  0.64280000  0.89920000  0.13120000  1.0
  H  H171  1  0.64260000  0.05570000  0.16190000  1.0
  H  H172  1  0.57750000  0.09490000  0.19390000  1.0
  H  H173  1  0.59190000  0.99500000  0.22180000  1.0
  H  H174  1  0.32300000  0.19770000  0.74980000  1.0
  H  H175  1  0.03990000  0.32780000  0.73310000  1.0
  H  H176  1  0.05070000  0.21920000  0.76030000  1.0
  H  H177  1  0.24100000  0.31780000  0.68580000  1.0
  H  H178  1  0.46250000  0.37500000  0.63520000  1.0
  H  H179  1  0.22590000  0.36210000  0.60250000  1.0
  H  H180  1  0.14280000  0.39920000  0.63120000  1.0
  H  H181  1  0.14260000  0.55570000  0.66190000  1.0
  H  H182  1  0.07750000  0.59490000  0.69390000  1.0
  H  H183  1  0.09190000  0.49500000  0.72180000  1.0
  H  H184  1  0.50000000  0.50000000  0.57270000  1.0
  H  H185  1  0.00000000  0.00000000  0.07270000  1.0
  H  H186  1  0.50000000  0.50000000  0.42730000  1.0
  H  H187  1  0.00000000  0.00000000  0.92730000  1.0
  H  H188  1  0.00000000  0.50000000  0.17730000  1.0
  H  H189  1  0.50000000  0.00000000  0.67730000  1.0
  H  H190  1  0.00000000  0.50000000  0.32270000  1.0
  H  H191  1  0.50000000  0.00000000  0.82270000  1.0
  C  C192  1  0.63330000  0.20080000  0.52549000  1.0
  C  C193  1  0.70100000  0.18750000  0.50788000  1.0
  C  C194  1  0.72580000  0.26610000  0.49663000  1.0
  C  C195  1  0.79110000  0.26260000  0.48075000  1.0
  C  C196  1  0.81860000  0.35470000  0.47056000  1.0
  C  C197  1  0.82930000  0.17660000  0.47542000  1.0
  C  C198  1  0.80230000  0.09770000  0.48654000  1.0
  C  C199  1  0.73710000  0.10390000  0.50294000  1.0
  C  C200  1  0.89450000  0.16680000  0.45726000  1.0
  C  C201  1  0.87320000  0.20790000  0.43752000  1.0
  C  C202  1  0.93390000  0.19910000  0.42086000  1.0
  C  C203  1  0.91390000  0.25140000  0.40144000  1.0
  C  C204  1  0.90620000  0.34720000  0.40210000  1.0
  C  C205  1  0.88110000  0.39790000  0.38434000  1.0
  C  C206  1  0.86510000  0.35320000  0.36565000  1.0
  C  C207  1  0.83520000  0.41050000  0.34680000  1.0
  C  C208  1  0.87290000  0.25710000  0.36502000  1.0
  C  C209  1  0.89560000  0.20760000  0.38212000  1.0
  C  C210  1  0.01560000  0.14950000  0.42326000  1.0
  C  C211  1  0.03900000  0.10980000  0.44238000  1.0
  C  C212  1  0.97900000  0.11860000  0.45905000  1.0
  C  C213  1  0.92950000  0.40120000  0.42185000  1.0
  C  C214  1  0.13330000  0.70080000  0.02549000  1.0
  C  C215  1  0.20100000  0.68750000  0.00788000  1.0
  C  C216  1  0.22580000  0.76610000  0.99663000  1.0
  C  C217  1  0.29110000  0.76260000  0.98075000  1.0
  C  C218  1  0.31860000  0.85470000  0.97056000  1.0
  C  C219  1  0.32930000  0.67660000  0.97542000  1.0
  C  C220  1  0.30230000  0.59770000  0.98654000  1.0
  C  C221  1  0.23710000  0.60390000  0.00294000  1.0
  C  C222  1  0.39450000  0.66680000  0.95726000  1.0
  C  C223  1  0.37320000  0.70790000  0.93752000  1.0
  C  C224  1  0.43390000  0.69910000  0.92086000  1.0
  C  C225  1  0.41390000  0.75140000  0.90144000  1.0
  C  C226  1  0.40620000  0.84720000  0.90210000  1.0
  C  C227  1  0.38110000  0.89790000  0.88434000  1.0
  C  C228  1  0.36510000  0.85320000  0.86565000  1.0
  C  C229  1  0.33520000  0.91050000  0.84680000  1.0
  C  C230  1  0.37290000  0.75710000  0.86502000  1.0
  C  C231  1  0.39560000  0.70760000  0.88212000  1.0
  C  C232  1  0.51560000  0.64950000  0.92326000  1.0
  C  C233  1  0.53900000  0.60980000  0.94238000  1.0
  C  C234  1  0.47900000  0.61860000  0.95905000  1.0
  C  C235  1  0.42950000  0.90120000  0.92185000  1.0
  C  C236  1  0.36670000  0.79920000  0.52549000  1.0
  C  C237  1  0.29900000  0.81250000  0.50788000  1.0
  C  C238  1  0.27420000  0.73390000  0.49663000  1.0
  C  C239  1  0.20890000  0.73740000  0.48075000  1.0
  C  C240  1  0.18140000  0.64530000  0.47056000  1.0
  C  C241  1  0.17070000  0.82340000  0.47542000  1.0
  C  C242  1  0.19770000  0.90230000  0.48654000  1.0
  C  C243  1  0.26290000  0.89610000  0.50294000  1.0
  C  C244  1  0.10550000  0.83320000  0.45726000  1.0
  C  C245  1  0.12680000  0.79210000  0.43752000  1.0
  C  C246  1  0.06610000  0.80090000  0.42086000  1.0
  C  C247  1  0.08610000  0.74860000  0.40144000  1.0
  C  C248  1  0.09380000  0.65280000  0.40210000  1.0
  C  C249  1  0.11890000  0.60210000  0.38434000  1.0
  C  C250  1  0.13490000  0.64680000  0.36565000  1.0
  C  C251  1  0.16480000  0.58950000  0.34680000  1.0
  C  C252  1  0.12710000  0.74290000  0.36502000  1.0
  C  C253  1  0.10440000  0.79240000  0.38212000  1.0
  C  C254  1  0.98440000  0.85050000  0.42326000  1.0
  C  C255  1  0.96100000  0.89020000  0.44238000  1.0
  C  C256  1  0.02100000  0.88140000  0.45905000  1.0
  C  C257  1  0.07050000  0.59880000  0.42185000  1.0
  C  C258  1  0.86670000  0.29920000  0.02549000  1.0
  C  C259  1  0.79900000  0.31250000  0.00788000  1.0
  C  C260  1  0.77420000  0.23390000  0.99663000  1.0
  C  C261  1  0.70890000  0.23740000  0.98075000  1.0
  C  C262  1  0.68140000  0.14530000  0.97056000  1.0
  C  C263  1  0.67070000  0.32340000  0.97542000  1.0
  C  C264  1  0.69770000  0.40230000  0.98654000  1.0
  C  C265  1  0.76290000  0.39610000  0.00294000  1.0
  C  C266  1  0.60550000  0.33320000  0.95726000  1.0
  C  C267  1  0.62680000  0.29210000  0.93752000  1.0
  C  C268  1  0.56610000  0.30090000  0.92086000  1.0
  C  C269  1  0.58610000  0.24860000  0.90144000  1.0
  C  C270  1  0.59380000  0.15280000  0.90210000  1.0
  C  C271  1  0.61890000  0.10210000  0.88434000  1.0
  C  C272  1  0.63490000  0.14680000  0.86565000  1.0
  C  C273  1  0.66480000  0.08950000  0.84680000  1.0
  C  C274  1  0.62710000  0.24290000  0.86502000  1.0
  C  C275  1  0.60440000  0.29240000  0.88212000  1.0
  C  C276  1  0.48440000  0.35050000  0.92326000  1.0
  C  C277  1  0.46100000  0.39020000  0.94238000  1.0
  C  C278  1  0.52100000  0.38140000  0.95905000  1.0
  C  C279  1  0.57050000  0.09880000  0.92185000  1.0
  C  C280  1  0.20080000  0.36670000  0.47451000  1.0
  C  C281  1  0.18750000  0.29900000  0.49212000  1.0
  C  C282  1  0.26610000  0.27420000  0.50337000  1.0
  C  C283  1  0.26260000  0.20890000  0.51925000  1.0
  C  C284  1  0.35470000  0.18140000  0.52944000  1.0
  C  C285  1  0.17660000  0.17070000  0.52458000  1.0
  C  C286  1  0.09770000  0.19770000  0.51346000  1.0
  C  C287  1  0.10390000  0.26290000  0.49706000  1.0
  C  C288  1  0.16680000  0.10550000  0.54274000  1.0
  C  C289  1  0.20790000  0.12680000  0.56248000  1.0
  C  C290  1  0.19910000  0.06610000  0.57914000  1.0
  C  C291  1  0.25140000  0.08610000  0.59856000  1.0
  C  C292  1  0.34720000  0.09380000  0.59790000  1.0
  C  C293  1  0.39790000  0.11890000  0.61566000  1.0
  C  C294  1  0.35320000  0.13490000  0.63435000  1.0
  C  C295  1  0.41050000  0.16480000  0.65320000  1.0
  C  C296  1  0.25710000  0.12710000  0.63498000  1.0
  C  C297  1  0.20760000  0.10440000  0.61788000  1.0
  C  C298  1  0.14950000  0.98440000  0.57674000  1.0
  C  C299  1  0.10980000  0.96100000  0.55762000  1.0
  C  C300  1  0.11860000  0.02100000  0.54095000  1.0
  C  C301  1  0.40120000  0.07050000  0.57815000  1.0
  C  C302  1  0.70080000  0.86670000  0.97451000  1.0
  C  C303  1  0.68750000  0.79900000  0.99212000  1.0
  C  C304  1  0.76610000  0.77420000  0.00337000  1.0
  C  C305  1  0.76260000  0.70890000  0.01925000  1.0
  C  C306  1  0.85470000  0.68140000  0.02944000  1.0
  C  C307  1  0.67660000  0.67070000  0.02458000  1.0
  C  C308  1  0.59770000  0.69770000  0.01346000  1.0
  C  C309  1  0.60390000  0.76290000  0.99706000  1.0
  C  C310  1  0.66680000  0.60550000  0.04274000  1.0
  C  C311  1  0.70790000  0.62680000  0.06248000  1.0
  C  C312  1  0.69910000  0.56610000  0.07914000  1.0
  C  C313  1  0.75140000  0.58610000  0.09856000  1.0
  C  C314  1  0.84720000  0.59380000  0.09790000  1.0
  C  C315  1  0.89790000  0.61890000  0.11566000  1.0
  C  C316  1  0.85320000  0.63490000  0.13435000  1.0
  C  C317  1  0.91050000  0.66480000  0.15320000  1.0
  C  C318  1  0.75710000  0.62710000  0.13498000  1.0
  C  C319  1  0.70760000  0.60440000  0.11788000  1.0
  C  C320  1  0.64950000  0.48440000  0.07674000  1.0
  C  C321  1  0.60980000  0.46100000  0.05762000  1.0
  C  C322  1  0.61860000  0.52100000  0.04095000  1.0
  C  C323  1  0.90120000  0.57050000  0.07815000  1.0
  C  C324  1  0.79920000  0.63330000  0.47451000  1.0
  C  C325  1  0.81250000  0.70100000  0.49212000  1.0
  C  C326  1  0.73390000  0.72580000  0.50337000  1.0
  C  C327  1  0.73740000  0.79110000  0.51925000  1.0
  C  C328  1  0.64530000  0.81860000  0.52944000  1.0
  C  C329  1  0.82340000  0.82930000  0.52458000  1.0
  C  C330  1  0.90230000  0.80230000  0.51346000  1.0
  C  C331  1  0.89610000  0.73710000  0.49706000  1.0
  C  C332  1  0.83320000  0.89450000  0.54274000  1.0
  C  C333  1  0.79210000  0.87320000  0.56248000  1.0
  C  C334  1  0.80090000  0.93390000  0.57914000  1.0
  C  C335  1  0.74860000  0.91390000  0.59856000  1.0
  C  C336  1  0.65280000  0.90620000  0.59790000  1.0
  C  C337  1  0.60210000  0.88110000  0.61566000  1.0
  C  C338  1  0.64680000  0.86510000  0.63435000  1.0
  C  C339  1  0.58950000  0.83520000  0.65320000  1.0
  C  C340  1  0.74290000  0.87290000  0.63498000  1.0
  C  C341  1  0.79240000  0.89560000  0.61788000  1.0
  C  C342  1  0.85050000  0.01560000  0.57674000  1.0
  C  C343  1  0.89020000  0.03900000  0.55762000  1.0
  C  C344  1  0.88140000  0.97900000  0.54095000  1.0
  C  C345  1  0.59880000  0.92950000  0.57815000  1.0
  C  C346  1  0.29920000  0.13330000  0.97451000  1.0
  C  C347  1  0.31250000  0.20100000  0.99212000  1.0
  C  C348  1  0.23390000  0.22580000  0.00337000  1.0
  C  C349  1  0.23740000  0.29110000  0.01925000  1.0
  C  C350  1  0.14530000  0.31860000  0.02944000  1.0
  C  C351  1  0.32340000  0.32930000  0.02458000  1.0
  C  C352  1  0.40230000  0.30230000  0.01346000  1.0
  C  C353  1  0.39610000  0.23710000  0.99706000  1.0
  C  C354  1  0.33320000  0.39450000  0.04274000  1.0
  C  C355  1  0.29210000  0.37320000  0.06248000  1.0
  C  C356  1  0.30090000  0.43390000  0.07914000  1.0
  C  C357  1  0.24860000  0.41390000  0.09856000  1.0
  C  C358  1  0.15280000  0.40620000  0.09790000  1.0
  C  C359  1  0.10210000  0.38110000  0.11566000  1.0
  C  C360  1  0.14680000  0.36510000  0.13435000  1.0
  C  C361  1  0.08950000  0.33520000  0.15320000  1.0
  C  C362  1  0.24290000  0.37290000  0.13498000  1.0
  C  C363  1  0.29240000  0.39560000  0.11788000  1.0
  C  C364  1  0.35050000  0.51560000  0.07674000  1.0
  C  C365  1  0.39020000  0.53900000  0.05762000  1.0
  C  C366  1  0.38140000  0.47900000  0.04095000  1.0
  C  C367  1  0.09880000  0.42950000  0.07815000  1.0
  C  C368  1  0.86670000  0.20080000  0.22451000  1.0
  C  C369  1  0.79900000  0.18750000  0.24212000  1.0
  C  C370  1  0.77420000  0.26610000  0.25337000  1.0
  C  C371  1  0.70890000  0.26260000  0.26925000  1.0
  C  C372  1  0.68140000  0.35470000  0.27944000  1.0
  C  C373  1  0.67070000  0.17660000  0.27458000  1.0
  C  C374  1  0.69770000  0.09770000  0.26346000  1.0
  C  C375  1  0.76290000  0.10390000  0.24706000  1.0
  C  C376  1  0.60550000  0.16680000  0.29274000  1.0
  C  C377  1  0.62680000  0.20790000  0.31248000  1.0
  C  C378  1  0.56610000  0.19910000  0.32914000  1.0
  C  C379  1  0.58610000  0.25140000  0.34856000  1.0
  C  C380  1  0.59380000  0.34720000  0.34790000  1.0
  C  C381  1  0.61890000  0.39790000  0.36566000  1.0
  C  C382  1  0.63490000  0.35320000  0.38435000  1.0
  C  C383  1  0.66480000  0.41050000  0.40320000  1.0
  C  C384  1  0.62710000  0.25710000  0.38498000  1.0
  C  C385  1  0.60440000  0.20760000  0.36788000  1.0
  C  C386  1  0.48440000  0.14950000  0.32674000  1.0
  C  C387  1  0.46100000  0.10980000  0.30762000  1.0
  C  C388  1  0.52100000  0.11860000  0.29095000  1.0
  C  C389  1  0.57050000  0.40120000  0.32815000  1.0
  C  C390  1  0.36670000  0.70080000  0.72451000  1.0
  C  C391  1  0.29900000  0.68750000  0.74212000  1.0
  C  C392  1  0.27420000  0.76610000  0.75337000  1.0
  C  C393  1  0.20890000  0.76260000  0.76925000  1.0
  C  C394  1  0.18140000  0.85470000  0.77944000  1.0
  C  C395  1  0.17070000  0.67660000  0.77458000  1.0
  C  C396  1  0.19770000  0.59770000  0.76346000  1.0
  C  C397  1  0.26290000  0.60390000  0.74706000  1.0
  C  C398  1  0.10550000  0.66680000  0.79274000  1.0
  C  C399  1  0.12680000  0.70790000  0.81248000  1.0
  C  C400  1  0.06610000  0.69910000  0.82914000  1.0
  C  C401  1  0.08610000  0.75140000  0.84856000  1.0
  C  C402  1  0.09380000  0.84720000  0.84790000  1.0
  C  C403  1  0.11890000  0.89790000  0.86566000  1.0
  C  C404  1  0.13490000  0.85320000  0.88435000  1.0
  C  C405  1  0.16480000  0.91050000  0.90320000  1.0
  C  C406  1  0.12710000  0.75710000  0.88498000  1.0
  C  C407  1  0.10440000  0.70760000  0.86788000  1.0
  C  C408  1  0.98440000  0.64950000  0.82674000  1.0
  C  C409  1  0.96100000  0.60980000  0.80762000  1.0
  C  C410  1  0.02100000  0.61860000  0.79095000  1.0
  C  C411  1  0.07050000  0.90120000  0.82815000  1.0
  C  C412  1  0.13330000  0.79920000  0.22451000  1.0
  C  C413  1  0.20100000  0.81250000  0.24212000  1.0
  C  C414  1  0.22580000  0.73390000  0.25337000  1.0
  C  C415  1  0.29110000  0.73740000  0.26925000  1.0
  C  C416  1  0.31860000  0.64530000  0.27944000  1.0
  C  C417  1  0.32930000  0.82340000  0.27458000  1.0
  C  C418  1  0.30230000  0.90230000  0.26346000  1.0
  C  C419  1  0.23710000  0.89610000  0.24706000  1.0
  C  C420  1  0.39450000  0.83320000  0.29274000  1.0
  C  C421  1  0.37320000  0.79210000  0.31248000  1.0
  C  C422  1  0.43390000  0.80090000  0.32914000  1.0
  C  C423  1  0.41390000  0.74860000  0.34856000  1.0
  C  C424  1  0.40620000  0.65280000  0.34790000  1.0
  C  C425  1  0.38110000  0.60210000  0.36566000  1.0
  C  C426  1  0.36510000  0.64680000  0.38435000  1.0
  C  C427  1  0.33520000  0.58950000  0.40320000  1.0
  C  C428  1  0.37290000  0.74290000  0.38498000  1.0
  C  C429  1  0.39560000  0.79240000  0.36788000  1.0
  C  C430  1  0.51560000  0.85050000  0.32674000  1.0
  C  C431  1  0.53900000  0.89020000  0.30762000  1.0
  C  C432  1  0.47900000  0.88140000  0.29095000  1.0
  C  C433  1  0.42950000  0.59880000  0.32815000  1.0
  C  C434  1  0.63330000  0.29920000  0.72451000  1.0
  C  C435  1  0.70100000  0.31250000  0.74212000  1.0
  C  C436  1  0.72580000  0.23390000  0.75337000  1.0
  C  C437  1  0.79110000  0.23740000  0.76925000  1.0
  C  C438  1  0.81860000  0.14530000  0.77944000  1.0
  C  C439  1  0.82930000  0.32340000  0.77458000  1.0
  C  C440  1  0.80230000  0.40230000  0.76346000  1.0
  C  C441  1  0.73710000  0.39610000  0.74706000  1.0
  C  C442  1  0.89450000  0.33320000  0.79274000  1.0
  C  C443  1  0.87320000  0.29210000  0.81248000  1.0
  C  C444  1  0.93390000  0.30090000  0.82914000  1.0
  C  C445  1  0.91390000  0.24860000  0.84856000  1.0
  C  C446  1  0.90620000  0.15280000  0.84790000  1.0
  C  C447  1  0.88110000  0.10210000  0.86566000  1.0
  C  C448  1  0.86510000  0.14680000  0.88435000  1.0
  C  C449  1  0.83520000  0.08950000  0.90320000  1.0
  C  C450  1  0.87290000  0.24290000  0.88498000  1.0
  C  C451  1  0.89560000  0.29240000  0.86788000  1.0
  C  C452  1  0.01560000  0.35050000  0.82674000  1.0
  C  C453  1  0.03900000  0.39020000  0.80762000  1.0
  C  C454  1  0.97900000  0.38140000  0.79095000  1.0
  C  C455  1  0.92950000  0.09880000  0.82815000  1.0
  C  C456  1  0.29920000  0.36670000  0.27549000  1.0
  C  C457  1  0.31250000  0.29900000  0.25788000  1.0
  C  C458  1  0.23390000  0.27420000  0.24663000  1.0
  C  C459  1  0.23740000  0.20890000  0.23075000  1.0
  C  C460  1  0.14530000  0.18140000  0.22056000  1.0
  C  C461  1  0.32340000  0.17070000  0.22542000  1.0
  C  C462  1  0.40230000  0.19770000  0.23654000  1.0
  C  C463  1  0.39610000  0.26290000  0.25294000  1.0
  C  C464  1  0.33320000  0.10550000  0.20726000  1.0
  C  C465  1  0.29210000  0.12680000  0.18752000  1.0
  C  C466  1  0.30090000  0.06610000  0.17086000  1.0
  C  C467  1  0.24860000  0.08610000  0.15144000  1.0
  C  C468  1  0.15280000  0.09380000  0.15210000  1.0
  C  C469  1  0.10210000  0.11890000  0.13434000  1.0
  C  C470  1  0.14680000  0.13490000  0.11565000  1.0
  C  C471  1  0.08950000  0.16480000  0.09680000  1.0
  C  C472  1  0.24290000  0.12710000  0.11502000  1.0
  C  C473  1  0.29240000  0.10440000  0.13212000  1.0
  C  C474  1  0.35050000  0.98440000  0.17326000  1.0
  C  C475  1  0.39020000  0.96100000  0.19238000  1.0
  C  C476  1  0.38140000  0.02100000  0.20905000  1.0
  C  C477  1  0.09880000  0.07050000  0.17185000  1.0
  C  C478  1  0.79920000  0.86670000  0.77549000  1.0
  C  C479  1  0.81250000  0.79900000  0.75788000  1.0
  C  C480  1  0.73390000  0.77420000  0.74663000  1.0
  C  C481  1  0.73740000  0.70890000  0.73075000  1.0
  C  C482  1  0.64530000  0.68140000  0.72056000  1.0
  C  C483  1  0.82340000  0.67070000  0.72542000  1.0
  C  C484  1  0.90230000  0.69770000  0.73654000  1.0
  C  C485  1  0.89610000  0.76290000  0.75294000  1.0
  C  C486  1  0.83320000  0.60550000  0.70726000  1.0
  C  C487  1  0.79210000  0.62680000  0.68752000  1.0
  C  C488  1  0.80090000  0.56610000  0.67086000  1.0
  C  C489  1  0.74860000  0.58610000  0.65144000  1.0
  C  C490  1  0.65280000  0.59380000  0.65210000  1.0
  C  C491  1  0.60210000  0.61890000  0.63434000  1.0
  C  C492  1  0.64680000  0.63490000  0.61565000  1.0
  C  C493  1  0.58950000  0.66480000  0.59680000  1.0
  C  C494  1  0.74290000  0.62710000  0.61502000  1.0
  C  C495  1  0.79240000  0.60440000  0.63212000  1.0
  C  C496  1  0.85050000  0.48440000  0.67326000  1.0
  C  C497  1  0.89020000  0.46100000  0.69238000  1.0
  C  C498  1  0.88140000  0.52100000  0.70905000  1.0
  C  C499  1  0.59880000  0.57050000  0.67185000  1.0
  C  C500  1  0.70080000  0.63330000  0.27549000  1.0
  C  C501  1  0.68750000  0.70100000  0.25788000  1.0
  C  C502  1  0.76610000  0.72580000  0.24663000  1.0
  C  C503  1  0.76260000  0.79110000  0.23075000  1.0
  C  C504  1  0.85470000  0.81860000  0.22056000  1.0
  C  C505  1  0.67660000  0.82930000  0.22542000  1.0
  C  C506  1  0.59770000  0.80230000  0.23654000  1.0
  C  C507  1  0.60390000  0.73710000  0.25294000  1.0
  C  C508  1  0.66680000  0.89450000  0.20726000  1.0
  C  C509  1  0.70790000  0.87320000  0.18752000  1.0
  C  C510  1  0.69910000  0.93390000  0.17086000  1.0
  C  C511  1  0.75140000  0.91390000  0.15144000  1.0
  C  C512  1  0.84720000  0.90620000  0.15210000  1.0
  C  C513  1  0.89790000  0.88110000  0.13434000  1.0
  C  C514  1  0.85320000  0.86510000  0.11565000  1.0
  C  C515  1  0.91050000  0.83520000  0.09680000  1.0
  C  C516  1  0.75710000  0.87290000  0.11502000  1.0
  C  C517  1  0.70760000  0.89560000  0.13212000  1.0
  C  C518  1  0.64950000  0.01560000  0.17326000  1.0
  C  C519  1  0.60980000  0.03900000  0.19238000  1.0
  C  C520  1  0.61860000  0.97900000  0.20905000  1.0
  C  C521  1  0.90120000  0.92950000  0.17185000  1.0
  C  C522  1  0.20080000  0.13330000  0.77549000  1.0
  C  C523  1  0.18750000  0.20100000  0.75788000  1.0
  C  C524  1  0.26610000  0.22580000  0.74663000  1.0
  C  C525  1  0.26260000  0.29110000  0.73075000  1.0
  C  C526  1  0.35470000  0.31860000  0.72056000  1.0
  C  C527  1  0.17660000  0.32930000  0.72542000  1.0
  C  C528  1  0.09770000  0.30230000  0.73654000  1.0
  C  C529  1  0.10390000  0.23710000  0.75294000  1.0
  C  C530  1  0.16680000  0.39450000  0.70726000  1.0
  C  C531  1  0.20790000  0.37320000  0.68752000  1.0
  C  C532  1  0.19910000  0.43390000  0.67086000  1.0
  C  C533  1  0.25140000  0.41390000  0.65144000  1.0
  C  C534  1  0.34720000  0.40620000  0.65210000  1.0
  C  C535  1  0.39790000  0.38110000  0.63434000  1.0
  C  C536  1  0.35320000  0.36510000  0.61565000  1.0
  C  C537  1  0.41050000  0.33520000  0.59680000  1.0
  C  C538  1  0.25710000  0.37290000  0.61502000  1.0
  C  C539  1  0.20760000  0.39560000  0.63212000  1.0
  C  C540  1  0.14950000  0.51560000  0.67326000  1.0
  C  C541  1  0.10980000  0.53900000  0.69238000  1.0
  C  C542  1  0.11860000  0.47900000  0.70905000  1.0
  C  C543  1  0.40120000  0.42950000  0.67185000  1.0
  C  C544  1  0.50000000  0.50000000  0.55810000  1.0
  C  C545  1  0.00000000  0.00000000  0.05810000  1.0
  C  C546  1  0.50000000  0.50000000  0.44190000  1.0
  C  C547  1  0.00000000  0.00000000  0.94190000  1.0
  C  C548  1  0.00000000  0.50000000  0.19190000  1.0
  C  C549  1  0.50000000  0.00000000  0.69190000  1.0
  C  C550  1  0.00000000  0.50000000  0.30810000  1.0
  C  C551  1  0.50000000  0.00000000  0.80810000  1.0
  O  O552  1  0.87110000  0.45970000  0.42877000  1.0
  O  O553  1  0.61610000  0.28180000  0.53172000  1.0
  O  O554  1  0.59440000  0.13150000  0.53439000  1.0
  O  O555  1  0.90350000  0.37400000  0.47050000  1.0
  O  O556  1  0.75440000  0.40500000  0.46395000  1.0
  O  O557  1  0.81990000  0.36920000  0.32949000  1.0
  O  O558  1  0.82100000  0.49470000  0.34865000  1.0
  O  O559  1  0.49140000  0.42660000  0.54916000  1.0
  O  O560  1  0.00510000  0.38610000  0.43044000  1.0
  O  O561  1  0.37110000  0.95970000  0.92877000  1.0
  O  O562  1  0.11610000  0.78180000  0.03172000  1.0
  O  O563  1  0.09440000  0.63150000  0.03439000  1.0
  O  O564  1  0.40350000  0.87400000  0.97050000  1.0
  O  O565  1  0.25440000  0.90500000  0.96395000  1.0
  O  O566  1  0.31990000  0.86920000  0.82949000  1.0
  O  O567  1  0.32100000  0.99470000  0.84865000  1.0
  O  O568  1  0.99140000  0.92660000  0.04916000  1.0
  O  O569  1  0.50510000  0.88610000  0.93044000  1.0
  O  O570  1  0.12890000  0.54030000  0.42877000  1.0
  O  O571  1  0.38390000  0.71820000  0.53172000  1.0
  O  O572  1  0.40560000  0.86850000  0.53439000  1.0
  O  O573  1  0.09650000  0.62600000  0.47050000  1.0
  O  O574  1  0.24560000  0.59500000  0.46395000  1.0
  O  O575  1  0.18010000  0.63080000  0.32949000  1.0
  O  O576  1  0.17900000  0.50530000  0.34865000  1.0
  O  O577  1  0.50860000  0.57340000  0.54916000  1.0
  O  O578  1  0.99490000  0.61390000  0.43044000  1.0
  O  O579  1  0.62890000  0.04030000  0.92877000  1.0
  O  O580  1  0.88390000  0.21820000  0.03172000  1.0
  O  O581  1  0.90560000  0.36850000  0.03439000  1.0
  O  O582  1  0.59650000  0.12600000  0.97050000  1.0
  O  O583  1  0.74560000  0.09500000  0.96395000  1.0
  O  O584  1  0.68010000  0.13080000  0.82949000  1.0
  O  O585  1  0.67900000  0.00530000  0.84865000  1.0
  O  O586  1  0.00860000  0.07340000  0.04916000  1.0
  O  O587  1  0.49490000  0.11390000  0.93044000  1.0
  O  O588  1  0.45970000  0.12890000  0.57123000  1.0
  O  O589  1  0.28180000  0.38390000  0.46828000  1.0
  O  O590  1  0.13150000  0.40560000  0.46561000  1.0
  O  O591  1  0.37400000  0.09650000  0.52950000  1.0
  O  O592  1  0.40500000  0.24560000  0.53605000  1.0
  O  O593  1  0.36920000  0.18010000  0.67051000  1.0
  O  O594  1  0.49470000  0.17900000  0.65135000  1.0
  O  O595  1  0.42660000  0.50860000  0.45084000  1.0
  O  O596  1  0.38610000  0.99490000  0.56956000  1.0
  O  O597  1  0.95970000  0.62890000  0.07123000  1.0
  O  O598  1  0.78180000  0.88390000  0.96828000  1.0
  O  O599  1  0.63150000  0.90560000  0.96561000  1.0
  O  O600  1  0.87400000  0.59650000  0.02950000  1.0
  O  O601  1  0.90500000  0.74560000  0.03605000  1.0
  O  O602  1  0.86920000  0.68010000  0.17051000  1.0
  O  O603  1  0.99470000  0.67900000  0.15135000  1.0
  O  O604  1  0.92660000  0.00860000  0.95084000  1.0
  O  O605  1  0.88610000  0.49490000  0.06956000  1.0
  O  O606  1  0.54030000  0.87110000  0.57123000  1.0
  O  O607  1  0.71820000  0.61610000  0.46828000  1.0
  O  O608  1  0.86850000  0.59440000  0.46561000  1.0
  O  O609  1  0.62600000  0.90350000  0.52950000  1.0
  O  O610  1  0.59500000  0.75440000  0.53605000  1.0
  O  O611  1  0.63080000  0.81990000  0.67051000  1.0
  O  O612  1  0.50530000  0.82100000  0.65135000  1.0
  O  O613  1  0.57340000  0.49140000  0.45084000  1.0
  O  O614  1  0.61390000  0.00510000  0.56956000  1.0
  O  O615  1  0.04030000  0.37110000  0.07123000  1.0
  O  O616  1  0.21820000  0.11610000  0.96828000  1.0
  O  O617  1  0.36850000  0.09440000  0.96561000  1.0
  O  O618  1  0.12600000  0.40350000  0.02950000  1.0
  O  O619  1  0.09500000  0.25440000  0.03605000  1.0
  O  O620  1  0.13080000  0.31990000  0.17051000  1.0
  O  O621  1  0.00530000  0.32100000  0.15135000  1.0
  O  O622  1  0.07340000  0.99140000  0.95084000  1.0
  O  O623  1  0.11390000  0.50510000  0.06956000  1.0
  O  O624  1  0.62890000  0.45970000  0.32123000  1.0
  O  O625  1  0.88390000  0.28180000  0.21828000  1.0
  O  O626  1  0.90560000  0.13150000  0.21561000  1.0
  O  O627  1  0.59650000  0.37400000  0.27950000  1.0
  O  O628  1  0.74560000  0.40500000  0.28605000  1.0
  O  O629  1  0.68010000  0.36920000  0.42051000  1.0
  O  O630  1  0.67900000  0.49470000  0.40135000  1.0
  O  O631  1  0.00860000  0.42660000  0.20084000  1.0
  O  O632  1  0.49490000  0.38610000  0.31956000  1.0
  O  O633  1  0.12890000  0.95970000  0.82123000  1.0
  O  O634  1  0.38390000  0.78180000  0.71828000  1.0
  O  O635  1  0.40560000  0.63150000  0.71561000  1.0
  O  O636  1  0.09650000  0.87400000  0.77950000  1.0
  O  O637  1  0.24560000  0.90500000  0.78605000  1.0
  O  O638  1  0.18010000  0.86920000  0.92051000  1.0
  O  O639  1  0.17900000  0.99470000  0.90135000  1.0
  O  O640  1  0.50860000  0.92660000  0.70084000  1.0
  O  O641  1  0.99490000  0.88610000  0.81956000  1.0
  O  O642  1  0.37110000  0.54030000  0.32123000  1.0
  O  O643  1  0.11610000  0.71820000  0.21828000  1.0
  O  O644  1  0.09440000  0.86850000  0.21561000  1.0
  O  O645  1  0.40350000  0.62600000  0.27950000  1.0
  O  O646  1  0.25440000  0.59500000  0.28605000  1.0
  O  O647  1  0.31990000  0.63080000  0.42051000  1.0
  O  O648  1  0.32100000  0.50530000  0.40135000  1.0
  O  O649  1  0.99140000  0.57340000  0.20084000  1.0
  O  O650  1  0.50510000  0.61390000  0.31956000  1.0
  O  O651  1  0.87110000  0.04030000  0.82123000  1.0
  O  O652  1  0.61610000  0.21820000  0.71828000  1.0
  O  O653  1  0.59440000  0.36850000  0.71561000  1.0
  O  O654  1  0.90350000  0.12600000  0.77950000  1.0
  O  O655  1  0.75440000  0.09500000  0.78605000  1.0
  O  O656  1  0.81990000  0.13080000  0.92051000  1.0
  O  O657  1  0.82100000  0.00530000  0.90135000  1.0
  O  O658  1  0.49140000  0.07340000  0.70084000  1.0
  O  O659  1  0.00510000  0.11390000  0.81956000  1.0
  O  O660  1  0.04030000  0.12890000  0.17877000  1.0
  O  O661  1  0.21820000  0.38390000  0.28172000  1.0
  O  O662  1  0.36850000  0.40560000  0.28439000  1.0
  O  O663  1  0.12600000  0.09650000  0.22050000  1.0
  O  O664  1  0.09500000  0.24560000  0.21395000  1.0
  O  O665  1  0.13080000  0.18010000  0.07949000  1.0
  O  O666  1  0.00530000  0.17900000  0.09865000  1.0
  O  O667  1  0.07340000  0.50860000  0.29916000  1.0
  O  O668  1  0.11390000  0.99490000  0.18044000  1.0
  O  O669  1  0.54030000  0.62890000  0.67877000  1.0
  O  O670  1  0.71820000  0.88390000  0.78172000  1.0
  O  O671  1  0.86850000  0.90560000  0.78439000  1.0
  O  O672  1  0.62600000  0.59650000  0.72050000  1.0
  O  O673  1  0.59500000  0.74560000  0.71395000  1.0
  O  O674  1  0.63080000  0.68010000  0.57949000  1.0
  O  O675  1  0.50530000  0.67900000  0.59865000  1.0
  O  O676  1  0.57340000  0.00860000  0.79916000  1.0
  O  O677  1  0.61390000  0.49490000  0.68044000  1.0
  O  O678  1  0.95970000  0.87110000  0.17877000  1.0
  O  O679  1  0.78180000  0.61610000  0.28172000  1.0
  O  O680  1  0.63150000  0.59440000  0.28439000  1.0
  O  O681  1  0.87400000  0.90350000  0.22050000  1.0
  O  O682  1  0.90500000  0.75440000  0.21395000  1.0
  O  O683  1  0.86920000  0.81990000  0.07949000  1.0
  O  O684  1  0.99470000  0.82100000  0.09865000  1.0
  O  O685  1  0.92660000  0.49140000  0.29916000  1.0
  O  O686  1  0.88610000  0.00510000  0.18044000  1.0
  O  O687  1  0.45970000  0.37110000  0.67877000  1.0
  O  O688  1  0.28180000  0.11610000  0.78172000  1.0
  O  O689  1  0.13150000  0.09440000  0.78439000  1.0
  O  O690  1  0.37400000  0.40350000  0.72050000  1.0
  O  O691  1  0.40500000  0.25440000  0.71395000  1.0
  O  O692  1  0.36920000  0.31990000  0.57949000  1.0
  O  O693  1  0.49470000  0.32100000  0.59865000  1.0
  O  O694  1  0.42660000  0.99140000  0.79916000  1.0
  O  O695  1  0.38610000  0.50510000  0.68044000  1.0
