# generated using pymatgen
data_AgH4(C3N2)2
_symmetry_space_group_name_H-M   'P 1'
_cell_length_a   10.01440000
_cell_length_b   10.12600000
_cell_length_c   20.43630000
_cell_angle_alpha   90.00000000
_cell_angle_beta   90.00000000
_cell_angle_gamma   90.00000000
_symmetry_Int_Tables_number   1
_chemical_formula_structural   AgH4(C3N2)2
_chemical_formula_sum   'Ag8 H32 C48 N32'
_cell_volume   2072.35964482
_cell_formula_units_Z   8
loop_
 _symmetry_equiv_pos_site_id
 _symmetry_equiv_pos_as_xyz
  1  'x, y, z'
loop_
 _atom_site_type_symbol
 _atom_site_label
 _atom_site_symmetry_multiplicity
 _atom_site_fract_x
 _atom_site_fract_y
 _atom_site_fract_z
 _atom_site_occupancy
  Ag  Ag0  1  0.00538000  0.23204000  0.27250000  1.0
  Ag  Ag1  1  0.50964000  0.23417000  0.52165000  1.0
  Ag  Ag2  1  0.49462000  0.76796000  0.77250000  1.0
  Ag  Ag3  1  0.99036000  0.76583000  0.02165000  1.0
  Ag  Ag4  1  0.99462000  0.73204000  0.22750000  1.0
  Ag  Ag5  1  0.49036000  0.73417000  0.97835000  1.0
  Ag  Ag6  1  0.50538000  0.26796000  0.72750000  1.0
  Ag  Ag7  1  0.00964000  0.26583000  0.47835000  1.0
  H  H8  1  0.63410000  0.09100000  0.10400000  1.0
  H  H9  1  0.59650000  0.98320000  0.15820000  1.0
  H  H10  1  0.76700000  0.61540000  0.40940000  1.0
  H  H11  1  0.67500000  0.58880000  0.34640000  1.0
  H  H12  1  0.36890000  0.48930000  0.14220000  1.0
  H  H13  1  0.32350000  0.40330000  0.08000000  1.0
  H  H14  1  0.25160000  0.84160000  0.39770000  1.0
  H  H15  1  0.35740000  0.88580000  0.34270000  1.0
  H  H16  1  0.86590000  0.90900000  0.60400000  1.0
  H  H17  1  0.90350000  0.01680000  0.65820000  1.0
  H  H18  1  0.73300000  0.38460000  0.90940000  1.0
  H  H19  1  0.82500000  0.41120000  0.84640000  1.0
  H  H20  1  0.13110000  0.51070000  0.64220000  1.0
  H  H21  1  0.17650000  0.59670000  0.58000000  1.0
  H  H22  1  0.24840000  0.15840000  0.89770000  1.0
  H  H23  1  0.14260000  0.11420000  0.84270000  1.0
  H  H24  1  0.36590000  0.59100000  0.39600000  1.0
  H  H25  1  0.40350000  0.48320000  0.34180000  1.0
  H  H26  1  0.23300000  0.11540000  0.09060000  1.0
  H  H27  1  0.32500000  0.08880000  0.15360000  1.0
  H  H28  1  0.63110000  0.98930000  0.35780000  1.0
  H  H29  1  0.67650000  0.90330000  0.42000000  1.0
  H  H30  1  0.74840000  0.34160000  0.10230000  1.0
  H  H31  1  0.64260000  0.38580000  0.15730000  1.0
  H  H32  1  0.13410000  0.40900000  0.89600000  1.0
  H  H33  1  0.09650000  0.51680000  0.84180000  1.0
  H  H34  1  0.26700000  0.88460000  0.59060000  1.0
  H  H35  1  0.17500000  0.91120000  0.65360000  1.0
  H  H36  1  0.86890000  0.01070000  0.85780000  1.0
  H  H37  1  0.82350000  0.09670000  0.92000000  1.0
  H  H38  1  0.75160000  0.65840000  0.60230000  1.0
  H  H39  1  0.85740000  0.61420000  0.65730000  1.0
  C  C40  1  0.67180000  0.02590000  0.13500000  1.0
  C  C41  1  0.73100000  0.54600000  0.38030000  1.0
  C  C42  1  0.65300000  0.45480000  0.41710000  1.0
  C  C43  1  0.84360000  0.47190000  0.34840000  1.0
  C  C44  1  0.29080000  0.45710000  0.11720000  1.0
  C  C45  1  0.74570000  0.92640000  0.09870000  1.0
  C  C46  1  0.29350000  0.91860000  0.37600000  1.0
  C  C47  1  0.20350000  0.37620000  0.15990000  1.0
  C  C48  1  0.36300000  0.00020000  0.42420000  1.0
  C  C49  1  0.19070000  0.00090000  0.34470000  1.0
  C  C50  1  0.75410000  0.09370000  0.18180000  1.0
  C  C51  1  0.21210000  0.56970000  0.09280000  1.0
  C  C52  1  0.82820000  0.97410000  0.63500000  1.0
  C  C53  1  0.76900000  0.45400000  0.88030000  1.0
  C  C54  1  0.84700000  0.54520000  0.91710000  1.0
  C  C55  1  0.65640000  0.52810000  0.84840000  1.0
  C  C56  1  0.20920000  0.54290000  0.61720000  1.0
  C  C57  1  0.75430000  0.07360000  0.59870000  1.0
  C  C58  1  0.20650000  0.08140000  0.87600000  1.0
  C  C59  1  0.29650000  0.62380000  0.65990000  1.0
  C  C60  1  0.13700000  0.99980000  0.92420000  1.0
  C  C61  1  0.30930000  0.99910000  0.84470000  1.0
  C  C62  1  0.74590000  0.90630000  0.68180000  1.0
  C  C63  1  0.28790000  0.43030000  0.59280000  1.0
  C  C64  1  0.32820000  0.52590000  0.36500000  1.0
  C  C65  1  0.26900000  0.04600000  0.11970000  1.0
  C  C66  1  0.34700000  0.95480000  0.08290000  1.0
  C  C67  1  0.15640000  0.97190000  0.15160000  1.0
  C  C68  1  0.70920000  0.95710000  0.38280000  1.0
  C  C69  1  0.25430000  0.42640000  0.40130000  1.0
  C  C70  1  0.70650000  0.41860000  0.12400000  1.0
  C  C71  1  0.79650000  0.87620000  0.34010000  1.0
  C  C72  1  0.63700000  0.50020000  0.07580000  1.0
  C  C73  1  0.80930000  0.50090000  0.15530000  1.0
  C  C74  1  0.24590000  0.59370000  0.31820000  1.0
  C  C75  1  0.78790000  0.06970000  0.40720000  1.0
  C  C76  1  0.17180000  0.47410000  0.86500000  1.0
  C  C77  1  0.23100000  0.95400000  0.61970000  1.0
  C  C78  1  0.15300000  0.04520000  0.58290000  1.0
  C  C79  1  0.34360000  0.02810000  0.65160000  1.0
  C  C80  1  0.79080000  0.04290000  0.88280000  1.0
  C  C81  1  0.24570000  0.57360000  0.90130000  1.0
  C  C82  1  0.79350000  0.58140000  0.62400000  1.0
  C  C83  1  0.70350000  0.12380000  0.84010000  1.0
  C  C84  1  0.86300000  0.49980000  0.57580000  1.0
  C  C85  1  0.69070000  0.49910000  0.65530000  1.0
  C  C86  1  0.25410000  0.40630000  0.81820000  1.0
  C  C87  1  0.71210000  0.93030000  0.90720000  1.0
  N  N88  1  0.58830000  0.38290000  0.44730000  1.0
  N  N89  1  0.11230000  0.06490000  0.32030000  1.0
  N  N90  1  0.42000000  0.06900000  0.45980000  1.0
  N  N91  1  0.13840000  0.31240000  0.19030000  1.0
  N  N92  1  0.92390000  0.41050000  0.32500000  1.0
  N  N93  1  0.82120000  0.14740000  0.21700000  1.0
  N  N94  1  0.80960000  0.85100000  0.07230000  1.0
  N  N95  1  0.15500000  0.65850000  0.07440000  1.0
  N  N96  1  0.91170000  0.61710000  0.94730000  1.0
  N  N97  1  0.38770000  0.93510000  0.82030000  1.0
  N  N98  1  0.08000000  0.93100000  0.95980000  1.0
  N  N99  1  0.36160000  0.68760000  0.69030000  1.0
  N  N100  1  0.57610000  0.58950000  0.82500000  1.0
  N  N101  1  0.67880000  0.85260000  0.71700000  1.0
  N  N102  1  0.69040000  0.14900000  0.57230000  1.0
  N  N103  1  0.34500000  0.34150000  0.57440000  1.0
  N  N104  1  0.41170000  0.88290000  0.05270000  1.0
  N  N105  1  0.88770000  0.56490000  0.17970000  1.0
  N  N106  1  0.58000000  0.56900000  0.04020000  1.0
  N  N107  1  0.86160000  0.81240000  0.30970000  1.0
  N  N108  1  0.07610000  0.91050000  0.17500000  1.0
  N  N109  1  0.17880000  0.64740000  0.28300000  1.0
  N  N110  1  0.19040000  0.35100000  0.42770000  1.0
  N  N111  1  0.84500000  0.15850000  0.42560000  1.0
  N  N112  1  0.08830000  0.11710000  0.55270000  1.0
  N  N113  1  0.61230000  0.43510000  0.67970000  1.0
  N  N114  1  0.92000000  0.43100000  0.54020000  1.0
  N  N115  1  0.63840000  0.18760000  0.80970000  1.0
  N  N116  1  0.42390000  0.08950000  0.67500000  1.0
  N  N117  1  0.32120000  0.35260000  0.78300000  1.0
  N  N118  1  0.30960000  0.64900000  0.92770000  1.0
  N  N119  1  0.65500000  0.84150000  0.92560000  1.0
