# generated using pymatgen
data_Zn4H6C12N6O7
_symmetry_space_group_name_H-M   'P 1'
_cell_length_a   14.20890000
_cell_length_b   14.20890000
_cell_length_c   14.20890000
_cell_angle_alpha   60.00000000
_cell_angle_beta   60.00000000
_cell_angle_gamma   60.00000000
_symmetry_Int_Tables_number   1
_chemical_formula_structural   Zn4H6C12N6O7
_chemical_formula_sum   'Zn8 H12 C24 N12 O14'
_cell_volume   2028.45966081
_cell_formula_units_Z   2
loop_
 _symmetry_equiv_pos_site_id
 _symmetry_equiv_pos_as_xyz
  1  'x, y, z'
loop_
 _atom_site_type_symbol
 _atom_site_label
 _atom_site_symmetry_multiplicity
 _atom_site_fract_x
 _atom_site_fract_y
 _atom_site_fract_z
 _atom_site_occupancy
  Zn  Zn0  1  0.19397000  0.19397000  0.41809000  1.0
  Zn  Zn1  1  0.19397000  0.41809000  0.19397000  1.0
  Zn  Zn2  1  0.41809000  0.19397000  0.19397000  1.0
  Zn  Zn3  1  0.80633000  0.80633000  0.80633000  1.0
  Zn  Zn4  1  0.80633000  0.58101000  0.80633000  1.0
  Zn  Zn5  1  0.80633000  0.80633000  0.58101000  1.0
  Zn  Zn6  1  0.19397000  0.19397000  0.19397000  1.0
  Zn  Zn7  1  0.58101000  0.80633000  0.80633000  1.0
  H  H8  1  0.02590000  0.33710000  0.61030000  1.0
  H  H9  1  0.02670000  0.02590000  0.61030000  1.0
  H  H10  1  0.02670000  0.61030000  0.33710000  1.0
  H  H11  1  0.61030000  0.33710000  0.02670000  1.0
  H  H12  1  0.02670000  0.33710000  0.02590000  1.0
  H  H13  1  0.61030000  0.02590000  0.33710000  1.0
  H  H14  1  0.02590000  0.61030000  0.02670000  1.0
  H  H15  1  0.33710000  0.02590000  0.02670000  1.0
  H  H16  1  0.33710000  0.02670000  0.61030000  1.0
  H  H17  1  0.33710000  0.61030000  0.02590000  1.0
  H  H18  1  0.61030000  0.02670000  0.02590000  1.0
  H  H19  1  0.02590000  0.02670000  0.33710000  1.0
  C  C20  1  0.57030000  0.92970000  0.92970000  1.0
  C  C21  1  0.04100000  0.04060000  0.53220000  1.0
  C  C22  1  0.53220000  0.04060000  0.38620000  1.0
  C  C23  1  0.57030000  0.92970000  0.57030000  1.0
  C  C24  1  0.99990000  0.99990000  0.50010000  1.0
  C  C25  1  0.57030000  0.57030000  0.92970000  1.0
  C  C26  1  0.50010000  0.99990000  0.99990000  1.0
  C  C27  1  0.04060000  0.38620000  0.53220000  1.0
  C  C28  1  0.04060000  0.04100000  0.38620000  1.0
  C  C29  1  0.38620000  0.04060000  0.04100000  1.0
  C  C30  1  0.92970000  0.92970000  0.57030000  1.0
  C  C31  1  0.53220000  0.04100000  0.04060000  1.0
  C  C32  1  0.04100000  0.53220000  0.38620000  1.0
  C  C33  1  0.99990000  0.50010000  0.50010000  1.0
  C  C34  1  0.50010000  0.99990000  0.50010000  1.0
  C  C35  1  0.38620000  0.53220000  0.04060000  1.0
  C  C36  1  0.92970000  0.57030000  0.92970000  1.0
  C  C37  1  0.99990000  0.50010000  0.99990000  1.0
  C  C38  1  0.53220000  0.38620000  0.04100000  1.0
  C  C39  1  0.04100000  0.38620000  0.04060000  1.0
  C  C40  1  0.04060000  0.53220000  0.04100000  1.0
  C  C41  1  0.92970000  0.57030000  0.57030000  1.0
  C  C42  1  0.50010000  0.50010000  0.99990000  1.0
  C  C43  1  0.38620000  0.04100000  0.53220000  1.0
  N  N44  1  0.10120000  0.10140000  0.44720000  1.0
  N  N45  1  0.10120000  0.35020000  0.10140000  1.0
  N  N46  1  0.35020000  0.44720000  0.10140000  1.0
  N  N47  1  0.10140000  0.44720000  0.10120000  1.0
  N  N48  1  0.10140000  0.10120000  0.35020000  1.0
  N  N49  1  0.44720000  0.35020000  0.10120000  1.0
  N  N50  1  0.35020000  0.10140000  0.10120000  1.0
  N  N51  1  0.44720000  0.10120000  0.10140000  1.0
  N  N52  1  0.10120000  0.44720000  0.35020000  1.0
  N  N53  1  0.35020000  0.10120000  0.44720000  1.0
  N  N54  1  0.44720000  0.10140000  0.35020000  1.0
  N  N55  1  0.10140000  0.35020000  0.44720000  1.0
  O  O56  1  0.53410000  0.89550000  0.67430000  1.0
  O  O57  1  0.89610000  0.53410000  0.67430000  1.0
  O  O58  1  0.89610000  0.67430000  0.89550000  1.0
  O  O59  1  0.53410000  0.67430000  0.89610000  1.0
  O  O60  1  0.89550000  0.67430000  0.53410000  1.0
  O  O61  1  0.67430000  0.89550000  0.89610000  1.0
  O  O62  1  0.67430000  0.89610000  0.53410000  1.0
  O  O63  1  0.53410000  0.89610000  0.89550000  1.0
  O  O64  1  0.25000000  0.25000000  0.25000000  1.0
  O  O65  1  0.89550000  0.89610000  0.67430000  1.0
  O  O66  1  0.89550000  0.53410000  0.89610000  1.0
  O  O67  1  0.89610000  0.89550000  0.53410000  1.0
  O  O68  1  0.67430000  0.53410000  0.89550000  1.0
  O  O69  1  0.75000000  0.75000000  0.75000000  1.0
