# generated using pymatgen
data_Zr3H83(C57O8)2
_symmetry_space_group_name_H-M   'P 1'
_cell_length_a   24.30500000
_cell_length_b   24.30500000
_cell_length_c   24.30500000
_cell_angle_alpha   90.00000000
_cell_angle_beta   90.00000000
_cell_angle_gamma   90.00000000
_symmetry_Int_Tables_number   1
_chemical_formula_structural   Zr3H83(C57O8)2
_chemical_formula_sum   'Zr6 H166 C228 O32'
_cell_volume   14357.76617262
_cell_formula_units_Z   2
loop_
 _symmetry_equiv_pos_site_id
 _symmetry_equiv_pos_as_xyz
  1  'x, y, z'
loop_
 _atom_site_type_symbol
 _atom_site_label
 _atom_site_symmetry_multiplicity
 _atom_site_fract_x
 _atom_site_fract_y
 _atom_site_fract_z
 _atom_site_occupancy
  Zr  Zr0  1  0.00134000  0.99011000  0.89805000  1.0
  Zr  Zr1  1  0.09913000  0.99091000  0.99492000  1.0
  Zr  Zr2  1  0.90359000  0.99161000  0.99500000  1.0
  Zr  Zr3  1  0.00173000  0.08706000  0.99378000  1.0
  Zr  Zr4  1  0.00097000  0.89550000  0.99595000  1.0
  Zr  Zr5  1  0.00143000  0.99244000  0.09170000  1.0
  H  H6  1  0.45206000  0.98895000  0.35541000  1.0
  H  H7  1  0.55075000  0.99145000  0.35550000  1.0
  H  H8  1  0.45176000  0.99065000  0.63455000  1.0
  H  H9  1  0.55045000  0.99405000  0.63462000  1.0
  H  H10  1  0.31186000  0.98722000  0.49487000  1.0
  H  H11  1  0.69059000  0.99565000  0.49513000  1.0
  H  H12  1  0.45303000  0.35187000  0.98663000  1.0
  H  H13  1  0.55181000  0.35234000  0.98685000  1.0
  H  H14  1  0.45163000  0.63056000  0.00222000  1.0
  H  H15  1  0.55051000  0.63096000  0.00317000  1.0
  H  H16  1  0.31231000  0.49061000  0.99390000  1.0
  H  H17  1  0.69114000  0.49230000  0.99586000  1.0
  H  H18  1  0.99751000  0.35237000  0.44369000  1.0
  H  H19  1  0.99655000  0.35127000  0.54247000  1.0
  H  H20  1  0.99713000  0.63143000  0.44685000  1.0
  H  H21  1  0.99774000  0.63035000  0.54563000  1.0
  H  H22  1  0.99901000  0.49347000  0.30523000  1.0
  H  H23  1  0.99847000  0.48922000  0.68410000  1.0
  H  H24  1  0.07491000  0.06312000  0.92074000  1.0
  H  H25  1  0.92757000  0.91767000  0.92263000  1.0
  H  H26  1  0.92838000  0.06550000  0.06715000  1.0
  H  H27  1  0.07420000  0.91868000  0.06894000  1.0
  H  H28  1  0.36827000  0.07385000  0.37738000  1.0
  H  H29  1  0.10814000  0.98425000  0.23124000  1.0
  H  H30  1  0.23929000  0.00483000  0.11263000  1.0
  H  H31  1  0.17536000  0.98352000  0.30545000  1.0
  H  H32  1  0.26864000  0.90709000  0.31489000  1.0
  H  H33  1  0.30663000  0.00376000  0.18814000  1.0
  H  H34  1  0.34266000  0.85409000  0.37508000  1.0
  H  H35  1  0.28759000  0.87415000  0.42078000  1.0
  H  H36  1  0.35817000  0.88675000  0.43919000  1.0
  H  H37  1  0.33118000  0.12743000  0.30645000  1.0
  H  H38  1  0.26397000  0.10598000  0.28424000  1.0
  H  H39  1  0.32407000  0.08991000  0.24323000  1.0
  H  H40  1  0.66873000  0.07893000  0.40080000  1.0
  H  H41  1  0.76332000  0.98225000  0.11327000  1.0
  H  H42  1  0.89522000  0.00050000  0.23145000  1.0
  H  H43  1  0.69626000  0.98428000  0.18912000  1.0
  H  H44  1  0.69941000  0.90930000  0.29141000  1.0
  H  H45  1  0.82830000  0.00232000  0.30586000  1.0
  H  H46  1  0.66787000  0.85883000  0.38326000  1.0
  H  H47  1  0.60647000  0.87530000  0.34475000  1.0
  H  H48  1  0.61074000  0.89109000  0.41683000  1.0
  H  H49  1  0.72036000  0.13239000  0.33950000  1.0
  H  H50  1  0.72259000  0.10779000  0.26979000  1.0
  H  H51  1  0.77984000  0.09557000  0.31585000  1.0
  H  H52  1  0.63809000  0.91067000  0.61253000  1.0
  H  H53  1  0.76379000  0.98026000  0.87694000  1.0
  H  H54  1  0.89389000  0.01151000  0.75956000  1.0
  H  H55  1  0.69647000  0.98128000  0.80149000  1.0
  H  H56  1  0.73009000  0.08178000  0.67500000  1.0
  H  H57  1  0.82667000  0.01191000  0.68520000  1.0
  H  H58  1  0.71000000  0.11379000  0.56933000  1.0
  H  H59  1  0.65355000  0.13126000  0.61441000  1.0
  H  H60  1  0.64035000  0.09777000  0.55017000  1.0
  H  H61  1  0.68291000  0.89610000  0.74628000  1.0
  H  H62  1  0.74408000  0.88345000  0.70563000  1.0
  H  H63  1  0.67826000  0.85865000  0.68282000  1.0
  H  H64  1  0.33521000  0.90091000  0.58671000  1.0
  H  H65  1  0.10950000  0.96012000  0.76109000  1.0
  H  H66  1  0.23799000  0.00532000  0.87558000  1.0
  H  H67  1  0.17663000  0.95805000  0.68660000  1.0
  H  H68  1  0.30234000  0.06643000  0.70147000  1.0
  H  H69  1  0.30522000  0.00294000  0.80003000  1.0
  H  H70  1  0.39429000  0.10377000  0.64869000  1.0
  H  H71  1  0.33227000  0.12033000  0.61122000  1.0
  H  H72  1  0.38969000  0.09021000  0.57618000  1.0
  H  H73  1  0.24237000  0.86383000  0.64250000  1.0
  H  H74  1  0.25332000  0.87553000  0.71497000  1.0
  H  H75  1  0.30709000  0.84617000  0.67447000  1.0
  H  H76  1  0.37175000  0.37016000  0.07550000  1.0
  H  H77  1  0.23975000  0.10833000  0.00355000  1.0
  H  H78  1  0.10824000  0.22731000  0.98816000  1.0
  H  H79  1  0.30707000  0.18379000  0.00253000  1.0
  H  H80  1  0.26631000  0.31393000  0.91010000  1.0
  H  H81  1  0.17548000  0.30153000  0.98751000  1.0
  H  H82  1  0.28464000  0.42101000  0.88039000  1.0
  H  H83  1  0.33863000  0.37572000  0.85678000  1.0
  H  H84  1  0.35577000  0.43851000  0.89113000  1.0
  H  H85  1  0.32767000  0.23585000  0.08859000  1.0
  H  H86  1  0.26805000  0.27626000  0.10775000  1.0
  H  H87  1  0.33586000  0.29783000  0.12789000  1.0
  H  H88  1  0.33023000  0.58252000  0.08106000  1.0
  H  H89  1  0.10626000  0.75429000  0.99957000  1.0
  H  H90  1  0.23901000  0.87237000  0.98840000  1.0
  H  H91  1  0.17293000  0.67957000  0.00149000  1.0
  H  H92  1  0.30576000  0.69644000  0.91342000  1.0
  H  H93  1  0.30574000  0.79629000  0.99046000  1.0
  H  H94  1  0.40039000  0.64464000  0.88179000  1.0
  H  H95  1  0.33998000  0.60623000  0.86179000  1.0
  H  H96  1  0.39600000  0.57212000  0.89537000  1.0
  H  H97  1  0.21785000  0.66612000  0.09548000  1.0
  H  H98  1  0.27412000  0.71231000  0.11124000  1.0
  H  H99  1  0.27603000  0.64198000  0.13403000  1.0
  H  H100  1  0.66644000  0.58467000  0.08639000  1.0
  H  H101  1  0.76344000  0.87301000  0.98735000  1.0
  H  H102  1  0.89457000  0.75679000  0.01864000  1.0
  H  H103  1  0.69658000  0.79708000  0.99001000  1.0
  H  H104  1  0.70137000  0.69702000  0.91957000  1.0
  H  H105  1  0.82789000  0.68209000  0.02066000  1.0
  H  H106  1  0.67058000  0.60578000  0.86680000  1.0
  H  H107  1  0.60938000  0.64497000  0.88239000  1.0
  H  H108  1  0.61215000  0.57266000  0.89721000  1.0
  H  H109  1  0.71970000  0.71549000  0.11865000  1.0
  H  H110  1  0.77677000  0.66880000  0.10810000  1.0
  H  H111  1  0.71571000  0.64561000  0.14244000  1.0
  H  H112  1  0.63737000  0.37199000  0.07548000  1.0
  H  H113  1  0.89544000  0.22719000  0.97423000  1.0
  H  H114  1  0.76433000  0.11014000  0.00229000  1.0
  H  H115  1  0.82863000  0.30197000  0.97447000  1.0
  H  H116  1  0.73367000  0.31541000  0.90468000  1.0
  H  H117  1  0.69749000  0.18592000  0.00178000  1.0
  H  H118  1  0.65808000  0.37747000  0.85542000  1.0
  H  H119  1  0.71402000  0.42201000  0.87569000  1.0
  H  H120  1  0.64399000  0.44056000  0.89070000  1.0
  H  H121  1  0.67721000  0.30073000  0.12634000  1.0
  H  H122  1  0.74340000  0.27847000  0.10206000  1.0
  H  H123  1  0.68237000  0.23833000  0.08727000  1.0
  H  H124  1  0.91557000  0.40028000  0.32204000  1.0
  H  H125  1  0.00856000  0.11117000  0.23149000  1.0
  H  H126  1  0.00038000  0.22909000  0.09838000  1.0
  H  H127  1  0.00641000  0.18741000  0.29806000  1.0
  H  H128  1  0.08450000  0.28819000  0.29803000  1.0
  H  H129  1  0.99826000  0.30398000  0.16491000  1.0
  H  H130  1  0.13511000  0.37873000  0.33242000  1.0
  H  H131  1  0.11522000  0.34041000  0.39292000  1.0
  H  H132  1  0.10103000  0.41280000  0.38815000  1.0
  H  H133  1  0.88685000  0.27044000  0.26566000  1.0
  H  H134  1  0.90272000  0.31655000  0.20935000  1.0
  H  H135  1  0.86356000  0.34062000  0.26716000  1.0
  H  H136  1  0.08145000  0.37128000  0.62943000  1.0
  H  H137  1  0.01144000  0.10710000  0.75617000  1.0
  H  H138  1  0.98098000  0.22502000  0.88594000  1.0
  H  H139  1  0.01043000  0.18240000  0.68859000  1.0
  H  H140  1  0.91076000  0.31012000  0.72307000  1.0
  H  H141  1  0.98062000  0.29914000  0.81856000  1.0
  H  H142  1  0.87977000  0.41629000  0.70412000  1.0
  H  H143  1  0.86105000  0.37178000  0.64762000  1.0
  H  H144  1  0.89510000  0.43571000  0.63439000  1.0
  H  H145  1  0.09512000  0.23710000  0.67321000  1.0
  H  H146  1  0.10886000  0.27719000  0.73452000  1.0
  H  H147  1  0.13316000  0.30019000  0.66858000  1.0
  H  H148  1  0.91528000  0.58198000  0.66726000  1.0
  H  H149  1  0.00950000  0.87131000  0.75829000  1.0
  H  H150  1  0.99707000  0.75357000  0.89122000  1.0
  H  H151  1  0.00747000  0.79511000  0.69169000  1.0
  H  H152  1  0.08363000  0.69487000  0.69155000  1.0
  H  H153  1  0.99526000  0.67870000  0.82468000  1.0
  H  H154  1  0.13471000  0.60468000  0.65696000  1.0
  H  H155  1  0.11460000  0.64302000  0.59655000  1.0
  H  H156  1  0.10080000  0.57054000  0.60117000  1.0
  H  H157  1  0.86280000  0.64158000  0.72169000  1.0
  H  H158  1  0.88600000  0.71177000  0.72378000  1.0
  H  H159  1  0.90157000  0.66529000  0.77988000  1.0
  H  H160  1  0.91096000  0.58446000  0.32830000  1.0
  H  H161  1  0.97181000  0.75912000  0.10436000  1.0
  H  H162  1  0.01607000  0.87420000  0.23264000  1.0
  H  H163  1  0.96929000  0.68494000  0.17168000  1.0
  H  H164  1  0.07627000  0.70051000  0.29910000  1.0
  H  H165  1  0.01319000  0.79886000  0.30020000  1.0
  H  H166  1  0.11232000  0.64735000  0.39137000  1.0
  H  H167  1  0.13022000  0.61041000  0.32940000  1.0
  H  H168  1  0.09932000  0.57479000  0.38606000  1.0
  H  H169  1  0.87516000  0.64091000  0.23514000  1.0
  H  H170  1  0.88607000  0.71333000  0.24726000  1.0
  H  H171  1  0.85608000  0.67190000  0.29994000  1.0
  C  C172  1  0.38476000  0.98896000  0.44475000  1.0
  C  C173  1  0.35648000  0.98832000  0.49492000  1.0
  C  C174  1  0.38462000  0.98914000  0.54513000  1.0
  C  C175  1  0.44282000  0.99051000  0.54555000  1.0
  C  C176  1  0.47201000  0.99100000  0.49500000  1.0
  C  C177  1  0.44292000  0.99022000  0.44442000  1.0
  C  C178  1  0.47272000  0.99009000  0.39484000  1.0
  C  C179  1  0.52996000  0.99124000  0.39488000  1.0
  C  C180  1  0.55963000  0.99200000  0.44451000  1.0
  C  C181  1  0.53044000  0.99197000  0.49504000  1.0
  C  C182  1  0.47252000  0.99121000  0.59517000  1.0
  C  C183  1  0.52976000  0.99292000  0.59521000  1.0
  C  C184  1  0.55954000  0.99305000  0.54562000  1.0
  C  C185  1  0.61769000  0.99473000  0.54526000  1.0
  C  C186  1  0.64597000  0.99459000  0.49509000  1.0
  C  C187  1  0.61782000  0.99287000  0.44491000  1.0
  C  C188  1  0.38538000  0.44073000  0.99271000  1.0
  C  C189  1  0.35695000  0.49080000  0.99434000  1.0
  C  C190  1  0.38493000  0.54109000  0.99586000  1.0
  C  C191  1  0.44312000  0.54167000  0.99709000  1.0
  C  C192  1  0.47249000  0.49127000  0.99524000  1.0
  C  C193  1  0.44358000  0.44062000  0.99273000  1.0
  C  C194  1  0.47358000  0.39126000  0.98956000  1.0
  C  C195  1  0.53085000  0.39153000  0.98964000  1.0
  C  C196  1  0.56035000  0.44116000  0.99301000  1.0
  C  C197  1  0.53094000  0.49152000  0.99558000  1.0
  C  C198  1  0.47262000  0.59133000  0.00016000  1.0
  C  C199  1  0.52989000  0.59156000  0.00075000  1.0
  C  C200  1  0.55984000  0.54215000  0.99816000  1.0
  C  C201  1  0.61803000  0.54204000  0.99808000  1.0
  C  C202  1  0.64651000  0.49207000  0.99593000  1.0
  C  C203  1  0.61854000  0.44182000  0.99318000  1.0
  C  C204  1  0.99992000  0.44242000  0.37749000  1.0
  C  C205  1  0.99906000  0.49295000  0.34986000  1.0
  C  C206  1  0.99870000  0.54284000  0.37863000  1.0
  C  C207  1  0.99892000  0.54256000  0.43685000  1.0
  C  C208  1  0.99937000  0.49167000  0.46544000  1.0
  C  C209  1  0.99939000  0.44143000  0.43571000  1.0
  C  C210  1  0.99830000  0.39151000  0.46491000  1.0
  C  C211  1  0.99778000  0.39088000  0.52217000  1.0
  C  C212  1  0.99864000  0.44014000  0.55249000  1.0
  C  C213  1  0.99932000  0.49103000  0.52391000  1.0
  C  C214  1  0.99810000  0.59182000  0.46716000  1.0
  C  C215  1  0.99847000  0.59120000  0.52443000  1.0
  C  C216  1  0.99939000  0.54128000  0.55363000  1.0
  C  C217  1  0.99982000  0.54029000  0.61186000  1.0
  C  C218  1  0.99875000  0.48976000  0.63947000  1.0
  C  C219  1  0.99792000  0.43987000  0.61068000  1.0
  C  C220  1  0.87610000  0.99361000  0.86893000  1.0
  C  C221  1  0.12657000  0.98591000  0.86893000  1.0
  C  C222  1  0.99866000  0.11558000  0.86865000  1.0
  C  C223  1  0.00300000  0.86401000  0.87143000  1.0
  C  C224  1  0.12658000  0.99440000  0.12100000  1.0
  C  C225  1  0.87629000  0.99098000  0.12120000  1.0
  C  C226  1  0.12682000  0.11680000  0.99586000  1.0
  C  C227  1  0.12586000  0.86478000  0.99400000  1.0
  C  C228  1  0.87596000  0.86586000  0.99986000  1.0
  C  C229  1  0.87682000  0.11758000  0.99056000  1.0
  C  C230  1  0.00414000  0.11857000  0.11826000  1.0
  C  C231  1  0.99722000  0.86702000  0.12104000  1.0
  C  C232  1  0.28537000  0.99251000  0.29836000  1.0
  C  C233  1  0.29088000  0.94342000  0.32820000  1.0
  C  C234  1  0.32413000  0.94058000  0.37523000  1.0
  C  C235  1  0.35194000  0.98836000  0.39330000  1.0
  C  C236  1  0.34696000  0.03735000  0.36314000  1.0
  C  C237  1  0.31400000  0.03999000  0.31574000  1.0
  C  C238  1  0.24570000  0.99402000  0.25223000  1.0
  C  C239  1  0.18954000  0.98831000  0.26345000  1.0
  C  C240  1  0.15121000  0.98889000  0.22082000  1.0
  C  C241  1  0.16821000  0.99479000  0.16572000  1.0
  C  C242  1  0.22477000  0.00031000  0.15450000  1.0
  C  C243  1  0.26324000  0.99994000  0.19751000  1.0
  C  C244  1  0.32858000  0.88608000  0.40451000  1.0
  C  C245  1  0.30800000  0.09391000  0.28576000  1.0
  C  C246  1  0.71796000  0.99556000  0.29899000  1.0
  C  C247  1  0.69216000  0.94651000  0.31495000  1.0
  C  C248  1  0.65897000  0.94427000  0.36216000  1.0
  C  C249  1  0.65081000  0.99262000  0.39356000  1.0
  C  C250  1  0.67544000  0.04198000  0.37671000  1.0
  C  C251  1  0.70896000  0.04406000  0.32975000  1.0
  C  C252  1  0.75753000  0.99421000  0.25280000  1.0
  C  C253  1  0.73973000  0.98788000  0.19823000  1.0
  C  C254  1  0.77805000  0.98677000  0.15507000  1.0
  C  C255  1  0.83475000  0.99139000  0.16606000  1.0
  C  C256  1  0.85203000  0.99690000  0.22112000  1.0
  C  C257  1  0.81387000  0.99821000  0.26389000  1.0
  C  C258  1  0.63446000  0.88953000  0.37793000  1.0
  C  C259  1  0.73437000  0.09802000  0.31284000  1.0
  C  C260  1  0.71728000  0.99569000  0.69157000  1.0
  C  C261  1  0.70954000  0.04447000  0.66171000  1.0
  C  C262  1  0.67620000  0.04577000  0.61465000  1.0
  C  C263  1  0.65052000  0.99679000  0.59664000  1.0
  C  C264  1  0.65775000  0.94809000  0.62677000  1.0
  C  C265  1  0.69087000  0.94693000  0.67411000  1.0
  C  C266  1  0.75687000  0.99596000  0.73783000  1.0
  C  C267  1  0.73962000  0.98757000  0.79232000  1.0
  C  C268  1  0.77806000  0.98732000  0.83532000  1.0
  C  C269  1  0.83436000  0.99541000  0.82438000  1.0
  C  C270  1  0.85103000  0.00464000  0.76965000  1.0
  C  C271  1  0.81269000  0.00506000  0.72698000  1.0
  C  C272  1  0.66946000  0.09994000  0.58520000  1.0
  C  C273  1  0.69948000  0.89322000  0.70385000  1.0
  C  C274  1  0.28549000  0.97996000  0.69167000  1.0
  C  C275  1  0.31019000  0.03003000  0.67688000  1.0
  C  C276  1  0.34290000  0.03444000  0.62949000  1.0
  C  C277  1  0.35165000  0.98734000  0.59646000  1.0
  C  C278  1  0.32802000  0.93705000  0.61188000  1.0
  C  C279  1  0.29546000  0.93258000  0.65929000  1.0
  C  C280  1  0.24586000  0.97972000  0.73798000  1.0
  C  C281  1  0.19035000  0.96798000  0.72783000  1.0
  C  C282  1  0.15204000  0.96947000  0.77052000  1.0
  C  C283  1  0.16832000  0.98295000  0.82446000  1.0
  C  C284  1  0.22414000  0.99452000  0.83463000  1.0
  C  C285  1  0.26254000  0.99331000  0.79159000  1.0
  C  C286  1  0.36628000  0.09010000  0.61529000  1.0
  C  C287  1  0.27302000  0.87662000  0.67386000  1.0
  C  C288  1  0.28577000  0.29431000  0.99428000  1.0
  C  C289  1  0.28979000  0.32588000  0.94612000  1.0
  C  C290  1  0.32316000  0.37288000  0.94382000  1.0
  C  C291  1  0.35266000  0.38918000  0.99123000  1.0
  C  C292  1  0.34920000  0.35727000  0.03924000  1.0
  C  C293  1  0.31610000  0.30993000  0.04135000  1.0
  C  C294  1  0.24604000  0.24814000  0.99546000  1.0
  C  C295  1  0.26362000  0.19328000  0.99985000  1.0
  C  C296  1  0.22513000  0.15028000  0.00019000  1.0
  C  C297  1  0.16846000  0.16157000  0.99607000  1.0
  C  C298  1  0.15139000  0.21680000  0.99159000  1.0
  C  C299  1  0.18975000  0.25945000  0.99111000  1.0
  C  C300  1  0.32590000  0.40407000  0.89027000  1.0
  C  C301  1  0.31171000  0.27821000  0.09442000  1.0
  C  C302  1  0.28361000  0.68629000  0.99856000  1.0
  C  C303  1  0.31160000  0.67190000  0.95022000  1.0
  C  C304  1  0.34527000  0.62501000  0.94807000  1.0
  C  C305  1  0.35172000  0.59233000  0.99583000  1.0
  C  C306  1  0.32488000  0.60759000  0.04455000  1.0
  C  C307  1  0.29087000  0.65423000  0.04652000  1.0
  C  C308  1  0.24408000  0.73256000  0.99696000  1.0
  C  C309  1  0.18759000  0.72158000  0.99891000  1.0
  C  C310  1  0.14957000  0.76452000  0.99758000  1.0
  C  C311  1  0.16716000  0.81966000  0.99409000  1.0
  C  C312  1  0.22401000  0.83053000  0.99133000  1.0
  C  C313  1  0.26217000  0.78722000  0.99250000  1.0
  C  C314  1  0.37209000  0.61091000  0.89395000  1.0
  C  C315  1  0.26315000  0.66945000  0.09985000  1.0
  C  C316  1  0.71797000  0.68785000  0.00611000  1.0
  C  C317  1  0.69325000  0.67283000  0.95618000  1.0
  C  C318  1  0.65999000  0.62580000  0.95230000  1.0
  C  C319  1  0.65073000  0.59351000  0.99981000  1.0
  C  C320  1  0.67410000  0.60942000  0.05008000  1.0
  C  C321  1  0.70762000  0.65631000  0.05386000  1.0
  C  C322  1  0.75737000  0.73427000  0.00640000  1.0
  C  C323  1  0.73979000  0.78840000  0.99659000  1.0
  C  C324  1  0.77799000  0.83163000  0.99515000  1.0
  C  C325  1  0.83443000  0.82114000  0.00281000  1.0
  C  C326  1  0.85155000  0.76662000  0.01251000  1.0
  C  C327  1  0.81347000  0.72376000  0.01409000  1.0
  C  C328  1  0.63653000  0.61118000  0.89678000  1.0
  C  C329  1  0.73130000  0.67240000  0.10886000  1.0
  C  C330  1  0.71895000  0.29600000  0.98987000  1.0
  C  C331  1  0.71223000  0.32744000  0.94192000  1.0
  C  C332  1  0.67873000  0.37441000  0.94136000  1.0
  C  C333  1  0.65172000  0.39068000  0.99024000  1.0
  C  C334  1  0.65798000  0.35904000  0.03810000  1.0
  C  C335  1  0.69136000  0.31185000  0.03856000  1.0
  C  C336  1  0.75837000  0.24952000  0.98892000  1.0
  C  C337  1  0.81435000  0.26017000  0.98044000  1.0
  C  C338  1  0.85245000  0.21724000  0.98047000  1.0
  C  C339  1  0.83538000  0.16247000  0.98871000  1.0
  C  C340  1  0.77894000  0.15176000  0.99605000  1.0
  C  C341  1  0.74075000  0.19498000  0.99612000  1.0
  C  C342  1  0.67320000  0.40564000  0.88805000  1.0
  C  C343  1  0.69899000  0.28061000  0.09156000  1.0
  C  C344  1  0.99933000  0.29743000  0.27564000  1.0
  C  C345  1  0.04743000  0.31235000  0.30376000  1.0
  C  C346  1  0.04898000  0.35924000  0.33748000  1.0
  C  C347  1  0.00082000  0.39138000  0.34389000  1.0
  C  C348  1  0.95238000  0.37564000  0.31677000  1.0
  C  C349  1  0.95104000  0.32903000  0.28269000  1.0
  C  C350  1  0.00144000  0.25108000  0.23620000  1.0
  C  C351  1  0.00512000  0.19642000  0.25444000  1.0
  C  C352  1  0.00633000  0.15302000  0.21638000  1.0
  C  C353  1  0.00439000  0.16379000  0.15947000  1.0
  C  C354  1  0.00176000  0.21894000  0.14174000  1.0
  C  C355  1  0.00036000  0.26197000  0.17967000  1.0
  C  C356  1  0.10287000  0.37391000  0.36443000  1.0
  C  C357  1  0.89803000  0.31334000  0.25464000  1.0
  C  C358  1  0.99649000  0.29262000  0.70916000  1.0
  C  C359  1  0.94797000  0.32309000  0.70213000  1.0
  C  C360  1  0.94682000  0.37042000  0.66915000  1.0
  C  C361  1  0.99569000  0.38811000  0.64302000  1.0
  C  C362  1  0.04410000  0.35732000  0.64942000  1.0
  C  C363  1  0.04513000  0.30972000  0.68224000  1.0
  C  C364  1  0.99622000  0.24633000  0.74883000  1.0
  C  C365  1  0.00435000  0.19173000  0.73172000  1.0
  C  C366  1  0.00459000  0.14879000  0.77031000  1.0
  C  C367  1  0.99674000  0.15992000  0.82661000  1.0
  C  C368  1  0.98769000  0.21475000  0.84311000  1.0
  C  C369  1  0.98730000  0.25731000  0.80465000  1.0
  C  C370  1  0.89291000  0.40053000  0.66331000  1.0
  C  C371  1  0.09861000  0.27937000  0.69005000  1.0
  C  C372  1  0.99850000  0.68516000  0.71393000  1.0
  C  C373  1  0.04668000  0.67053000  0.68577000  1.0
  C  C374  1  0.04847000  0.62371000  0.65196000  1.0
  C  C375  1  0.00049000  0.59132000  0.64549000  1.0
  C  C376  1  0.95196000  0.60679000  0.67260000  1.0
  C  C377  1  0.95036000  0.65335000  0.70674000  1.0
  C  C378  1  0.00037000  0.73150000  0.75343000  1.0
  C  C379  1  0.00518000  0.78612000  0.73528000  1.0
  C  C380  1  0.00630000  0.82951000  0.77336000  1.0
  C  C381  1  0.00312000  0.81878000  0.83022000  1.0
  C  C382  1  0.99938000  0.76369000  0.84789000  1.0
  C  C383  1  0.99811000  0.72067000  0.80994000  1.0
  C  C384  1  0.10244000  0.60938000  0.62497000  1.0
  C  C385  1  0.89716000  0.66880000  0.73460000  1.0
  C  C386  1  0.99017000  0.69030000  0.28067000  1.0
  C  C387  1  0.03988000  0.67567000  0.30618000  1.0
  C  C388  1  0.04404000  0.62806000  0.33864000  1.0
  C  C389  1  0.99705000  0.59459000  0.34624000  1.0
  C  C390  1  0.94706000  0.60992000  0.32193000  1.0
  C  C391  1  0.94282000  0.65757000  0.28967000  1.0
  C  C392  1  0.99039000  0.73656000  0.24092000  1.0
  C  C393  1  0.97911000  0.72622000  0.18535000  1.0
  C  C394  1  0.98087000  0.76876000  0.14691000  1.0
  C  C395  1  0.99420000  0.82278000  0.16305000  1.0
  C  C396  1  0.00539000  0.83318000  0.21891000  1.0
  C  C397  1  0.00390000  0.79025000  0.25748000  1.0
  C  C398  1  0.09937000  0.61406000  0.36290000  1.0
  C  C399  1  0.88714000  0.67197000  0.26642000  1.0
  O  O400  1  0.85925000  0.99286000  0.91977000  1.0
  O  O401  1  0.14345000  0.98795000  0.91973000  1.0
  O  O402  1  0.99990000  0.06459000  0.85237000  1.0
  O  O403  1  0.00250000  0.91464000  0.85407000  1.0
  O  O404  1  0.00234000  0.84939000  0.92273000  1.0
  O  O405  1  0.99959000  0.13137000  0.91957000  1.0
  O  O406  1  0.07548000  0.98680000  0.85344000  1.0
  O  O407  1  0.92719000  0.99230000  0.85346000  1.0
  O  O408  1  0.05142000  0.94088000  0.94552000  1.0
  O  O409  1  0.95134000  0.04040000  0.94447000  1.0
  O  O410  1  0.05157000  0.03984000  0.94457000  1.0
  O  O411  1  0.95106000  0.94152000  0.94575000  1.0
  O  O412  1  0.14348000  0.99327000  0.07017000  1.0
  O  O413  1  0.85931000  0.99100000  0.07037000  1.0
  O  O414  1  0.07568000  0.13201000  0.99489000  1.0
  O  O415  1  0.07459000  0.84997000  0.99484000  1.0
  O  O416  1  0.92707000  0.85061000  0.99888000  1.0
  O  O417  1  0.92806000  0.13252000  0.99109000  1.0
  O  O418  1  0.00343000  0.06793000  0.13562000  1.0
  O  O419  1  0.99897000  0.91798000  0.13732000  1.0
  O  O420  1  0.00350000  0.13318000  0.06697000  1.0
  O  O421  1  0.99829000  0.85117000  0.07014000  1.0
  O  O422  1  0.14372000  0.06599000  0.99579000  1.0
  O  O423  1  0.85958000  0.06693000  0.99237000  1.0
  O  O424  1  0.85900000  0.91660000  0.99795000  1.0
  O  O425  1  0.14315000  0.91546000  0.99411000  1.0
  O  O426  1  0.07547000  0.99414000  0.13637000  1.0
  O  O427  1  0.92743000  0.99167000  0.13647000  1.0
  O  O428  1  0.95100000  0.94248000  0.04542000  1.0
  O  O429  1  0.05189000  0.04136000  0.04430000  1.0
  O  O430  1  0.95157000  0.04140000  0.04401000  1.0
  O  O431  1  0.05116000  0.94229000  0.04514000  1.0
