# generated using pymatgen
data_Zr3H65C120(N3O8)2
_symmetry_space_group_name_H-M   'P 1'
_cell_length_a   28.92020000
_cell_length_b   28.92020000
_cell_length_c   28.92020000
_cell_angle_alpha   90.00000000
_cell_angle_beta   90.00000000
_cell_angle_gamma   90.00000000
_symmetry_Int_Tables_number   1
_chemical_formula_structural   Zr3H65C120(N3O8)2
_chemical_formula_sum   'Zr6 H130 C240 N12 O32'
_cell_volume   24188.21811131
_cell_formula_units_Z   2
loop_
 _symmetry_equiv_pos_site_id
 _symmetry_equiv_pos_as_xyz
  1  'x, y, z'
loop_
 _atom_site_type_symbol
 _atom_site_label
 _atom_site_symmetry_multiplicity
 _atom_site_fract_x
 _atom_site_fract_y
 _atom_site_fract_z
 _atom_site_occupancy
  Zr  Zr0  1  0.91906000  0.99654000  0.99981000  1.0
  Zr  Zr1  1  0.00041000  0.99648000  0.08121000  1.0
  Zr  Zr2  1  0.00046000  0.99655000  0.91847000  1.0
  Zr  Zr3  1  0.00040000  0.91515000  0.99981000  1.0
  Zr  Zr4  1  0.00046000  0.07789000  0.99987000  1.0
  Zr  Zr5  1  0.08180000  0.99649000  0.99987000  1.0
  H  H6  1  0.54552000  0.03001000  0.32601000  1.0
  H  H7  1  0.45423000  0.02905000  0.32613000  1.0
  H  H8  1  0.54009000  0.01889000  0.49988000  1.0
  H  H9  1  0.33258000  0.96273000  0.45482000  1.0
  H  H10  1  0.33268000  0.96362000  0.54604000  1.0
  H  H11  1  0.45533000  0.03006000  0.67366000  1.0
  H  H12  1  0.54661000  0.02915000  0.67354000  1.0
  H  H13  1  0.66820000  0.96368000  0.45366000  1.0
  H  H14  1  0.46076000  0.01887000  0.49979000  1.0
  H  H15  1  0.66830000  0.96283000  0.54488000  1.0
  H  H16  1  0.32662000  0.54162000  0.03342000  1.0
  H  H17  1  0.32673000  0.45034000  0.03251000  1.0
  H  H18  1  0.50048000  0.53619000  0.02224000  1.0
  H  H19  1  0.45540000  0.32865000  0.96619000  1.0
  H  H20  1  0.54662000  0.32875000  0.96705000  1.0
  H  H21  1  0.67426000  0.45144000  0.03338000  1.0
  H  H22  1  0.67414000  0.54272000  0.03242000  1.0
  H  H23  1  0.45423000  0.66427000  0.96698000  1.0
  H  H24  1  0.50040000  0.45686000  0.02226000  1.0
  H  H25  1  0.54546000  0.66437000  0.96609000  1.0
  H  H26  1  0.96768000  0.67022000  0.45365000  1.0
  H  H27  1  0.96676000  0.67034000  0.54494000  1.0
  H  H28  1  0.97793000  0.49655000  0.46018000  1.0
  H  H29  1  0.03321000  0.54272000  0.66759000  1.0
  H  H30  1  0.03409000  0.45150000  0.66770000  1.0
  H  H31  1  0.96777000  0.32280000  0.54605000  1.0
  H  H32  1  0.96681000  0.32269000  0.45477000  1.0
  H  H33  1  0.03401000  0.54155000  0.33198000  1.0
  H  H34  1  0.97795000  0.49647000  0.53952000  1.0
  H  H35  1  0.03316000  0.45032000  0.33208000  1.0
  H  H36  1  0.93888000  0.93502000  0.06131000  1.0
  H  H37  1  0.93897000  0.05807000  0.93834000  1.0
  H  H38  1  0.06193000  0.93502000  0.93834000  1.0
  H  H39  1  0.06193000  0.05798000  0.06139000  1.0
  H  H40  1  0.28240000  0.05416000  0.34630000  1.0
  H  H41  1  0.34284000  0.05616000  0.40628000  1.0
  H  H42  1  0.40804000  0.93719000  0.34442000  1.0
  H  H43  1  0.34771000  0.93540000  0.28433000  1.0
  H  H44  1  0.25961000  0.99250000  0.15416000  1.0
  H  H45  1  0.20008000  0.99282000  0.09392000  1.0
  H  H46  1  0.09411000  0.99318000  0.19954000  1.0
  H  H47  1  0.15413000  0.99286000  0.25927000  1.0
  H  H48  1  0.71704000  0.05945000  0.34710000  1.0
  H  H49  1  0.65658000  0.05912000  0.40710000  1.0
  H  H50  1  0.59381000  0.93998000  0.34307000  1.0
  H  H51  1  0.65416000  0.94052000  0.28298000  1.0
  H  H52  1  0.84657000  0.00105000  0.25914000  1.0
  H  H53  1  0.90663000  0.00039000  0.19946000  1.0
  H  H54  1  0.80073000  0.99978000  0.09376000  1.0
  H  H55  1  0.74117000  0.00044000  0.15396000  1.0
  H  H56  1  0.65317000  0.93555000  0.71537000  1.0
  H  H57  1  0.59284000  0.93729000  0.65528000  1.0
  H  H58  1  0.65800000  0.05627000  0.59339000  1.0
  H  H59  1  0.71844000  0.05431000  0.65337000  1.0
  H  H60  1  0.74126000  0.99268000  0.84552000  1.0
  H  H61  1  0.80078000  0.99300000  0.90576000  1.0
  H  H62  1  0.90675000  0.99335000  0.80014000  1.0
  H  H63  1  0.84673000  0.99304000  0.74042000  1.0
  H  H64  1  0.34673000  0.94054000  0.71672000  1.0
  H  H65  1  0.40708000  0.94000000  0.65663000  1.0
  H  H66  1  0.34426000  0.05908000  0.59256000  1.0
  H  H67  1  0.28380000  0.05941000  0.65255000  1.0
  H  H68  1  0.25970000  0.00033000  0.84572000  1.0
  H  H69  1  0.20014000  0.99968000  0.90592000  1.0
  H  H70  1  0.09424000  0.00048000  0.80023000  1.0
  H  H71  1  0.15429000  0.00113000  0.74055000  1.0
  H  H72  1  0.28491000  0.34378000  0.93890000  1.0
  H  H73  1  0.34499000  0.40412000  0.94065000  1.0
  H  H74  1  0.40689000  0.33895000  0.05962000  1.0
  H  H75  1  0.34691000  0.27851000  0.05766000  1.0
  H  H76  1  0.25986000  0.15021000  0.99638000  1.0
  H  H77  1  0.20014000  0.09020000  0.99668000  1.0
  H  H78  1  0.09452000  0.19617000  0.99633000  1.0
  H  H79  1  0.15476000  0.25569000  0.99602000  1.0
  H  H80  1  0.34771000  0.71316000  0.06275000  1.0
  H  H81  1  0.40771000  0.65270000  0.06244000  1.0
  H  H82  1  0.34364000  0.58986000  0.94336000  1.0
  H  H83  1  0.28355000  0.65021000  0.94389000  1.0
  H  H84  1  0.25972000  0.84266000  0.00445000  1.0
  H  H85  1  0.20004000  0.90271000  0.00380000  1.0
  H  H86  1  0.09435000  0.79681000  0.00300000  1.0
  H  H87  1  0.15455000  0.73725000  0.00366000  1.0
  H  H88  1  0.65398000  0.71455000  0.05751000  1.0
  H  H89  1  0.59400000  0.65412000  0.05952000  1.0
  H  H90  1  0.65585000  0.58890000  0.94055000  1.0
  H  H91  1  0.71594000  0.64924000  0.93876000  1.0
  H  H92  1  0.74101000  0.84282000  0.99620000  1.0
  H  H93  1  0.80073000  0.90284000  0.99652000  1.0
  H  H94  1  0.90635000  0.79687000  0.99615000  1.0
  H  H95  1  0.84611000  0.73734000  0.99583000  1.0
  H  H96  1  0.65318000  0.27991000  0.06281000  1.0
  H  H97  1  0.59318000  0.34037000  0.06248000  1.0
  H  H98  1  0.65721000  0.40315000  0.94335000  1.0
  H  H99  1  0.71729000  0.34280000  0.94389000  1.0
  H  H100  1  0.84632000  0.25579000  0.00379000  1.0
  H  H101  1  0.90651000  0.19622000  0.00312000  1.0
  H  H102  1  0.80082000  0.09032000  0.00373000  1.0
  H  H103  1  0.74114000  0.15038000  0.00440000  1.0
  H  H104  1  0.93741000  0.34376000  0.28323000  1.0
  H  H105  1  0.93772000  0.40375000  0.34369000  1.0
  H  H106  1  0.05685000  0.33975000  0.40649000  1.0
  H  H107  1  0.05633000  0.27966000  0.34614000  1.0
  H  H108  1  0.99586000  0.25581000  0.15371000  1.0
  H  H109  1  0.99654000  0.19613000  0.09365000  1.0
  H  H110  1  0.99715000  0.09043000  0.19955000  1.0
  H  H111  1  0.99648000  0.15063000  0.25911000  1.0
  H  H112  1  0.06145000  0.28102000  0.65256000  1.0
  H  H113  1  0.05964000  0.34110000  0.59222000  1.0
  H  H114  1  0.94068000  0.40295000  0.65745000  1.0
  H  H115  1  0.94270000  0.34297000  0.71789000  1.0
  H  H116  1  0.00441000  0.15085000  0.74067000  1.0
  H  H117  1  0.00411000  0.09060000  0.80019000  1.0
  H  H118  1  0.00375000  0.19622000  0.90617000  1.0
  H  H119  1  0.00405000  0.25595000  0.84615000  1.0
  H  H120  1  0.93745000  0.64925000  0.71648000  1.0
  H  H121  1  0.93775000  0.58926000  0.65602000  1.0
  H  H122  1  0.05683000  0.65331000  0.59317000  1.0
  H  H123  1  0.05631000  0.71340000  0.65352000  1.0
  H  H124  1  0.99578000  0.73723000  0.84597000  1.0
  H  H125  1  0.99645000  0.79691000  0.90603000  1.0
  H  H126  1  0.99725000  0.90261000  0.80013000  1.0
  H  H127  1  0.99657000  0.84241000  0.74057000  1.0
  H  H128  1  0.94256000  0.65005000  0.28182000  1.0
  H  H129  1  0.94058000  0.59006000  0.34226000  1.0
  H  H130  1  0.05955000  0.65195000  0.40745000  1.0
  H  H131  1  0.06132000  0.71203000  0.34711000  1.0
  H  H132  1  0.00387000  0.73709000  0.15353000  1.0
  H  H133  1  0.00358000  0.79681000  0.09352000  1.0
  H  H134  1  0.00394000  0.90243000  0.19949000  1.0
  H  H135  1  0.00423000  0.84218000  0.25901000  1.0
  C  C136  1  0.52371000  0.02081000  0.35499000  1.0
  C  C137  1  0.47630000  0.02030000  0.35504000  1.0
  C  C138  1  0.46248000  0.00627000  0.40167000  1.0
  C  C139  1  0.53794000  0.00698000  0.40157000  1.0
  C  C140  1  0.41647000  0.99820000  0.41579000  1.0
  C  C141  1  0.40365000  0.99055000  0.46240000  1.0
  C  C142  1  0.36098000  0.97382000  0.47651000  1.0
  C  C143  1  0.36102000  0.97429000  0.52406000  1.0
  C  C144  1  0.40374000  0.99123000  0.53776000  1.0
  C  C145  1  0.41673000  0.99959000  0.58418000  1.0
  C  C146  1  0.46291000  0.00701000  0.59811000  1.0
  C  C147  1  0.47713000  0.02086000  0.64468000  1.0
  C  C148  1  0.52454000  0.02038000  0.64463000  1.0
  C  C149  1  0.53837000  0.00633000  0.59800000  1.0
  C  C150  1  0.58439000  0.99828000  0.58389000  1.0
  C  C151  1  0.59721000  0.99061000  0.53729000  1.0
  C  C152  1  0.63989000  0.97390000  0.52318000  1.0
  C  C153  1  0.63985000  0.97435000  0.47563000  1.0
  C  C154  1  0.59712000  0.99126000  0.46193000  1.0
  C  C155  1  0.58413000  0.99959000  0.41550000  1.0
  C  C156  1  0.35559000  0.51981000  0.02422000  1.0
  C  C157  1  0.35564000  0.47240000  0.02374000  1.0
  C  C158  1  0.40227000  0.45858000  0.00969000  1.0
  C  C159  1  0.40216000  0.53404000  0.01037000  1.0
  C  C160  1  0.41638000  0.41256000  0.00164000  1.0
  C  C161  1  0.46299000  0.39974000  0.99398000  1.0
  C  C162  1  0.47710000  0.35706000  0.97726000  1.0
  C  C163  1  0.52465000  0.35710000  0.97772000  1.0
  C  C164  1  0.53835000  0.39983000  0.99463000  1.0
  C  C165  1  0.58478000  0.41282000  0.00296000  1.0
  C  C166  1  0.59871000  0.45901000  0.01036000  1.0
  C  C167  1  0.64528000  0.47324000  0.02419000  1.0
  C  C168  1  0.64523000  0.52065000  0.02368000  1.0
  C  C169  1  0.59860000  0.53447000  0.00964000  1.0
  C  C170  1  0.58448000  0.58048000  0.00157000  1.0
  C  C171  1  0.53788000  0.59330000  0.99392000  1.0
  C  C172  1  0.52376000  0.63597000  0.97719000  1.0
  C  C173  1  0.47621000  0.63593000  0.97766000  1.0
  C  C174  1  0.46252000  0.59321000  0.99460000  1.0
  C  C175  1  0.41609000  0.58022000  0.00295000  1.0
  C  C176  1  0.97645000  0.64131000  0.47572000  1.0
  C  C177  1  0.97596000  0.64136000  0.52313000  1.0
  C  C178  1  0.98981000  0.59479000  0.53736000  1.0
  C  C179  1  0.99049000  0.59468000  0.46190000  1.0
  C  C180  1  0.99723000  0.58086000  0.58354000  1.0
  C  C181  1  0.00559000  0.53444000  0.59653000  1.0
  C  C182  1  0.02253000  0.52074000  0.63925000  1.0
  C  C183  1  0.02300000  0.47320000  0.63929000  1.0
  C  C184  1  0.00627000  0.45908000  0.59662000  1.0
  C  C185  1  0.99861000  0.41247000  0.58380000  1.0
  C  C186  1  0.99055000  0.39835000  0.53779000  1.0
  C  C187  1  0.97652000  0.35172000  0.52398000  1.0
  C  C188  1  0.97601000  0.35167000  0.47657000  1.0
  C  C189  1  0.98984000  0.39824000  0.46234000  1.0
  C  C190  1  0.99723000  0.41217000  0.41615000  1.0
  C  C191  1  0.00556000  0.45860000  0.40315000  1.0
  C  C192  1  0.02248000  0.47230000  0.36043000  1.0
  C  C193  1  0.02293000  0.51985000  0.36039000  1.0
  C  C194  1  0.00621000  0.53396000  0.40306000  1.0
  C  C195  1  0.99855000  0.58056000  0.41588000  1.0
  C  C196  1  0.89500000  0.99428000  0.89430000  1.0
  C  C197  1  0.89494000  0.99887000  0.10530000  1.0
  C  C198  1  0.89489000  0.89109000  0.99746000  1.0
  C  C199  1  0.89498000  0.10201000  0.00220000  1.0
  C  C200  1  0.10586000  0.99413000  0.10538000  1.0
  C  C201  1  0.10593000  0.99887000  0.89439000  1.0
  C  C202  1  0.00267000  0.89097000  0.10527000  1.0
  C  C203  1  0.99808000  0.10197000  0.10534000  1.0
  C  C204  1  0.00281000  0.10206000  0.89441000  1.0
  C  C205  1  0.99808000  0.89107000  0.89434000  1.0
  C  C206  1  0.10588000  0.89102000  0.00219000  1.0
  C  C207  1  0.10597000  0.10195000  0.99760000  1.0
  C  C208  1  0.31087000  0.99466000  0.31113000  1.0
  C  C209  1  0.30974000  0.02855000  0.34574000  1.0
  C  C210  1  0.34405000  0.02966000  0.37983000  1.0
  C  C211  1  0.37989000  0.99688000  0.37966000  1.0
  C  C212  1  0.38077000  0.96285000  0.34499000  1.0
  C  C213  1  0.34646000  0.96180000  0.31089000  1.0
  C  C214  1  0.27567000  0.99375000  0.27582000  1.0
  C  C215  1  0.24622000  0.99315000  0.24623000  1.0
  C  C216  1  0.21103000  0.99269000  0.21089000  1.0
  C  C217  1  0.22349000  0.99256000  0.16412000  1.0
  C  C218  1  0.18938000  0.99276000  0.12980000  1.0
  C  C219  1  0.14215000  0.99311000  0.14177000  1.0
  C  C220  1  0.13003000  0.99295000  0.18896000  1.0
  C  C221  1  0.16422000  0.99276000  0.22319000  1.0
  C  C222  1  0.68975000  0.00006000  0.31084000  1.0
  C  C223  1  0.69022000  0.03332000  0.34606000  1.0
  C  C224  1  0.65590000  0.03310000  0.38016000  1.0
  C  C225  1  0.62072000  0.99961000  0.37936000  1.0
  C  C226  1  0.62054000  0.96619000  0.34410000  1.0
  C  C227  1  0.65485000  0.96647000  0.31000000  1.0
  C  C228  1  0.72501000  0.00041000  0.27558000  1.0
  C  C229  1  0.75450000  0.00063000  0.24602000  1.0
  C  C230  1  0.78971000  0.00075000  0.21071000  1.0
  C  C231  1  0.83651000  0.00083000  0.22305000  1.0
  C  C232  1  0.87072000  0.00045000  0.18885000  1.0
  C  C233  1  0.85863000  0.99996000  0.14165000  1.0
  C  C234  1  0.81141000  0.00012000  0.12965000  1.0
  C  C235  1  0.77728000  0.00049000  0.16394000  1.0
  C  C236  1  0.68998000  0.99481000  0.68855000  1.0
  C  C237  1  0.65441000  0.96193000  0.68881000  1.0
  C  C238  1  0.62010000  0.96297000  0.65471000  1.0
  C  C239  1  0.62097000  0.99698000  0.62003000  1.0
  C  C240  1  0.65679000  0.02978000  0.61984000  1.0
  C  C241  1  0.69111000  0.02869000  0.65394000  1.0
  C  C242  1  0.72519000  0.99392000  0.72387000  1.0
  C  C243  1  0.75465000  0.99333000  0.75345000  1.0
  C  C244  1  0.78984000  0.99287000  0.78879000  1.0
  C  C245  1  0.77737000  0.99275000  0.83556000  1.0
  C  C246  1  0.81148000  0.99294000  0.86988000  1.0
  C  C247  1  0.85871000  0.99328000  0.85792000  1.0
  C  C248  1  0.87084000  0.99313000  0.81072000  1.0
  C  C249  1  0.83664000  0.99295000  0.77650000  1.0
  C  C250  1  0.31111000  0.00005000  0.68884000  1.0
  C  C251  1  0.34602000  0.96647000  0.68970000  1.0
  C  C252  1  0.38034000  0.96620000  0.65559000  1.0
  C  C253  1  0.38014000  0.99960000  0.62032000  1.0
  C  C254  1  0.34495000  0.03308000  0.61950000  1.0
  C  C255  1  0.31063000  0.03329000  0.65361000  1.0
  C  C256  1  0.27585000  0.00040000  0.72411000  1.0
  C  C257  1  0.24637000  0.00062000  0.75366000  1.0
  C  C258  1  0.21115000  0.00073000  0.78897000  1.0
  C  C259  1  0.22359000  0.00043000  0.83574000  1.0
  C  C260  1  0.18946000  0.00006000  0.87004000  1.0
  C  C261  1  0.14224000  0.99995000  0.85804000  1.0
  C  C262  1  0.13014000  0.00050000  0.81084000  1.0
  C  C263  1  0.16436000  0.00087000  0.77664000  1.0
  C  C264  1  0.31172000  0.30696000  0.99816000  1.0
  C  C265  1  0.31147000  0.34254000  0.96529000  1.0
  C  C266  1  0.34557000  0.37685000  0.96633000  1.0
  C  C267  1  0.38025000  0.37598000  0.00034000  1.0
  C  C268  1  0.38043000  0.34015000  0.03314000  1.0
  C  C269  1  0.34634000  0.30584000  0.03205000  1.0
  C  C270  1  0.27641000  0.27176000  0.99727000  1.0
  C  C271  1  0.24682000  0.24230000  0.99668000  1.0
  C  C272  1  0.21149000  0.20711000  0.99621000  1.0
  C  C273  1  0.22378000  0.16030000  0.99628000  1.0
  C  C274  1  0.18955000  0.12611000  0.99646000  1.0
  C  C275  1  0.14236000  0.13824000  0.99661000  1.0
  C  C276  1  0.13040000  0.18547000  0.99627000  1.0
  C  C277  1  0.16472000  0.21958000  0.99609000  1.0
  C  C278  1  0.31143000  0.68584000  0.00339000  1.0
  C  C279  1  0.34666000  0.68632000  0.03664000  1.0
  C  C280  1  0.38076000  0.65200000  0.03643000  1.0
  C  C281  1  0.37996000  0.61681000  0.00296000  1.0
  C  C282  1  0.34468000  0.61661000  0.96955000  1.0
  C  C283  1  0.31058000  0.65092000  0.96982000  1.0
  C  C284  1  0.27617000  0.72109000  0.00373000  1.0
  C  C285  1  0.24661000  0.75058000  0.00395000  1.0
  C  C286  1  0.21130000  0.78580000  0.00406000  1.0
  C  C287  1  0.22363000  0.83259000  0.00420000  1.0
  C  C288  1  0.18943000  0.86680000  0.00382000  1.0
  C  C289  1  0.14224000  0.85471000  0.00327000  1.0
  C  C290  1  0.13024000  0.80749000  0.00338000  1.0
  C  C291  1  0.16453000  0.77336000  0.00375000  1.0
  C  C292  1  0.68914000  0.68608000  0.99802000  1.0
  C  C293  1  0.65454000  0.68721000  0.03191000  1.0
  C  C294  1  0.62044000  0.65290000  0.03303000  1.0
  C  C295  1  0.62062000  0.61706000  0.00024000  1.0
  C  C296  1  0.65529000  0.61617000  0.96622000  1.0
  C  C297  1  0.68939000  0.65048000  0.96516000  1.0
  C  C298  1  0.72446000  0.72128000  0.99710000  1.0
  C  C299  1  0.75404000  0.75074000  0.99650000  1.0
  C  C300  1  0.78938000  0.78593000  0.99602000  1.0
  C  C301  1  0.77709000  0.83273000  0.99610000  1.0
  C  C302  1  0.81131000  0.86692000  0.99629000  1.0
  C  C303  1  0.85851000  0.85480000  0.99644000  1.0
  C  C304  1  0.87047000  0.80757000  0.99608000  1.0
  C  C305  1  0.83615000  0.77346000  0.99590000  1.0
  C  C306  1  0.68944000  0.30720000  0.00342000  1.0
  C  C307  1  0.65422000  0.30674000  0.03668000  1.0
  C  C308  1  0.62011000  0.34106000  0.03647000  1.0
  C  C309  1  0.62091000  0.37623000  0.00298000  1.0
  C  C310  1  0.65617000  0.37642000  0.96956000  1.0
  C  C311  1  0.69028000  0.34210000  0.96984000  1.0
  C  C312  1  0.72470000  0.27194000  0.00377000  1.0
  C  C313  1  0.75426000  0.24246000  0.00399000  1.0
  C  C314  1  0.78956000  0.20724000  0.00410000  1.0
  C  C315  1  0.83633000  0.21968000  0.00384000  1.0
  C  C316  1  0.87063000  0.18554000  0.00346000  1.0
  C  C317  1  0.85862000  0.13833000  0.00330000  1.0
  C  C318  1  0.81143000  0.12623000  0.00379000  1.0
  C  C319  1  0.77723000  0.16045000  0.00418000  1.0
  C  C320  1  0.99680000  0.30750000  0.31053000  1.0
  C  C321  1  0.96354000  0.34272000  0.31006000  1.0
  C  C322  1  0.96374000  0.37683000  0.34438000  1.0
  C  C323  1  0.99722000  0.37603000  0.37956000  1.0
  C  C324  1  0.03065000  0.34078000  0.37975000  1.0
  C  C325  1  0.03038000  0.30667000  0.34544000  1.0
  C  C326  1  0.99647000  0.27224000  0.27527000  1.0
  C  C327  1  0.99626000  0.24269000  0.24578000  1.0
  C  C328  1  0.99616000  0.20738000  0.21057000  1.0
  C  C329  1  0.99609000  0.21972000  0.16378000  1.0
  C  C330  1  0.99647000  0.18552000  0.12956000  1.0
  C  C331  1  0.99698000  0.13832000  0.14165000  1.0
  C  C332  1  0.99681000  0.12632000  0.18887000  1.0
  C  C333  1  0.99643000  0.16061000  0.22300000  1.0
  C  C334  1  0.00220000  0.30781000  0.68940000  1.0
  C  C335  1  0.03505000  0.30757000  0.65381000  1.0
  C  C336  1  0.03398000  0.34167000  0.61950000  1.0
  C  C337  1  0.99995000  0.37634000  0.62039000  1.0
  C  C338  1  0.96717000  0.37651000  0.65623000  1.0
  C  C339  1  0.96830000  0.34241000  0.69055000  1.0
  C  C340  1  0.00312000  0.27250000  0.72461000  1.0
  C  C341  1  0.00374000  0.24291000  0.75406000  1.0
  C  C342  1  0.00422000  0.20757000  0.78925000  1.0
  C  C343  1  0.00435000  0.16081000  0.77679000  1.0
  C  C344  1  0.00417000  0.12648000  0.81090000  1.0
  C  C345  1  0.00382000  0.13845000  0.85812000  1.0
  C  C346  1  0.00397000  0.18564000  0.87025000  1.0
  C  C347  1  0.00415000  0.21987000  0.83606000  1.0
  C  C348  1  0.99681000  0.68553000  0.68915000  1.0
  C  C349  1  0.96356000  0.65030000  0.68964000  1.0
  C  C350  1  0.96376000  0.61620000  0.65532000  1.0
  C  C351  1  0.99723000  0.61700000  0.62013000  1.0
  C  C352  1  0.03064000  0.65227000  0.61992000  1.0
  C  C353  1  0.03038000  0.68638000  0.65423000  1.0
  C  C354  1  0.99648000  0.72079000  0.72441000  1.0
  C  C355  1  0.99627000  0.75035000  0.75390000  1.0
  C  C356  1  0.99617000  0.78566000  0.78911000  1.0
  C  C357  1  0.99604000  0.77332000  0.83591000  1.0
  C  C358  1  0.99643000  0.80752000  0.87012000  1.0
  C  C359  1  0.99698000  0.85472000  0.85803000  1.0
  C  C360  1  0.99687000  0.86672000  0.81081000  1.0
  C  C361  1  0.99649000  0.83243000  0.77668000  1.0
  C  C362  1  0.00206000  0.68522000  0.31028000  1.0
  C  C363  1  0.96817000  0.65061000  0.30915000  1.0
  C  C364  1  0.96707000  0.61652000  0.34347000  1.0
  C  C365  1  0.99986000  0.61670000  0.37930000  1.0
  C  C366  1  0.03388000  0.65138000  0.38018000  1.0
  C  C367  1  0.03492000  0.68547000  0.34587000  1.0
  C  C368  1  0.00296000  0.72053000  0.27508000  1.0
  C  C369  1  0.00356000  0.75012000  0.24562000  1.0
  C  C370  1  0.00404000  0.78546000  0.21043000  1.0
  C  C371  1  0.00397000  0.77316000  0.16362000  1.0
  C  C372  1  0.00380000  0.80739000  0.12943000  1.0
  C  C373  1  0.00366000  0.85459000  0.14156000  1.0
  C  C374  1  0.00400000  0.86655000  0.18879000  1.0
  C  C375  1  0.00417000  0.83222000  0.22290000  1.0
  N  N376  1  0.50033000  0.99848000  0.42804000  1.0
  N  N377  1  0.42952000  0.00111000  0.49996000  1.0
  N  N378  1  0.50053000  0.99852000  0.57164000  1.0
  N  N379  1  0.57134000  0.00114000  0.49972000  1.0
  N  N380  1  0.42864000  0.49642000  0.00188000  1.0
  N  N381  1  0.50055000  0.42561000  0.00451000  1.0
  N  N382  1  0.57223000  0.49662000  0.00185000  1.0
  N  N383  1  0.50031000  0.56743000  0.00447000  1.0
  N  N384  1  0.99830000  0.56831000  0.49974000  1.0
  N  N385  1  0.99571000  0.49664000  0.57075000  1.0
  N  N386  1  0.99833000  0.42472000  0.49995000  1.0
  N  N387  1  0.99568000  0.49639000  0.42894000  1.0
  O  O388  1  0.93785000  0.99502000  0.88082000  1.0
  O  O389  1  0.93778000  0.99809000  0.11881000  1.0
  O  O390  1  0.88141000  0.93394000  0.99821000  1.0
  O  O391  1  0.88146000  0.05917000  0.00142000  1.0
  O  O392  1  0.93782000  0.11552000  0.00145000  1.0
  O  O393  1  0.93773000  0.87755000  0.99821000  1.0
  O  O394  1  0.88143000  0.99812000  0.06245000  1.0
  O  O395  1  0.88146000  0.99500000  0.93714000  1.0
  O  O396  1  0.95848000  0.03847000  0.04180000  1.0
  O  O397  1  0.95847000  0.95458000  0.95784000  1.0
  O  O398  1  0.95863000  0.95475000  0.04158000  1.0
  O  O399  1  0.95869000  0.03832000  0.95808000  1.0
  O  O400  1  0.06301000  0.99488000  0.11886000  1.0
  O  O401  1  0.06309000  0.99814000  0.88088000  1.0
  O  O402  1  0.00193000  0.87750000  0.06242000  1.0
  O  O403  1  0.99886000  0.11548000  0.06250000  1.0
  O  O404  1  0.00206000  0.11554000  0.93727000  1.0
  O  O405  1  0.99881000  0.87755000  0.93718000  1.0
  O  O406  1  0.11940000  0.93386000  0.00145000  1.0
  O  O407  1  0.11945000  0.05910000  0.99834000  1.0
  O  O408  1  0.06304000  0.87751000  0.00140000  1.0
  O  O409  1  0.06313000  0.11548000  0.99833000  1.0
  O  O410  1  0.00195000  0.93381000  0.11881000  1.0
  O  O411  1  0.99886000  0.93392000  0.88083000  1.0
  O  O412  1  0.00206000  0.05922000  0.88088000  1.0
  O  O413  1  0.99882000  0.05912000  0.11885000  1.0
  O  O414  1  0.11940000  0.99488000  0.06254000  1.0
  O  O415  1  0.11944000  0.99808000  0.93724000  1.0
  O  O416  1  0.04243000  0.03848000  0.95791000  1.0
  O  O417  1  0.04237000  0.95452000  0.04181000  1.0
  O  O418  1  0.04220000  0.95475000  0.95808000  1.0
  O  O419  1  0.04220000  0.03826000  0.04164000  1.0
