# generated using pymatgen
data_Na2Cd2H12C24N10Cl
_symmetry_space_group_name_H-M   'P 1'
_cell_length_a   20.29900000
_cell_length_b   20.33100000
_cell_length_c   20.33100000
_cell_angle_alpha   90.00000000
_cell_angle_beta   90.00000000
_cell_angle_gamma   90.00000000
_symmetry_Int_Tables_number   1
_chemical_formula_structural   Na2Cd2H12C24N10Cl
_chemical_formula_sum   'Na8 Cd8 H48 C96 N40 Cl4'
_cell_volume   8390.58273874
_cell_formula_units_Z   4
loop_
 _symmetry_equiv_pos_site_id
 _symmetry_equiv_pos_as_xyz
  1  'x, y, z'
loop_
 _atom_site_type_symbol
 _atom_site_label
 _atom_site_symmetry_multiplicity
 _atom_site_fract_x
 _atom_site_fract_y
 _atom_site_fract_z
 _atom_site_occupancy
  Na  Na0  1  0.86500000  0.81460000  0.81460000  1.0
  Na  Na1  1  0.13500000  0.81460000  0.81460000  1.0
  Na  Na2  1  0.86500000  0.18540000  0.18540000  1.0
  Na  Na3  1  0.86500000  0.18540000  0.81460000  1.0
  Na  Na4  1  0.86500000  0.81460000  0.18540000  1.0
  Na  Na5  1  0.13500000  0.18540000  0.81460000  1.0
  Na  Na6  1  0.13500000  0.81460000  0.18540000  1.0
  Na  Na7  1  0.13500000  0.18540000  0.18540000  1.0
  Cd  Cd8  1  0.00000000  0.90290000  0.90290000  1.0
  Cd  Cd9  1  0.00000000  0.09710000  0.90290000  1.0
  Cd  Cd10  1  0.00000000  0.09710000  0.09710000  1.0
  Cd  Cd11  1  0.00000000  0.90290000  0.09710000  1.0
  Cd  Cd12  1  0.50000000  0.94812000  0.50000000  1.0
  Cd  Cd13  1  0.50000000  0.50000000  0.05188000  1.0
  Cd  Cd14  1  0.50000000  0.05188000  0.50000000  1.0
  Cd  Cd15  1  0.50000000  0.50000000  0.94812000  1.0
  H  H16  1  0.22930000  0.90040000  0.75330000  1.0
  H  H17  1  0.77070000  0.90040000  0.24670000  1.0
  H  H18  1  0.22930000  0.75330000  0.09960000  1.0
  H  H19  1  0.74490000  0.00000000  0.43950000  1.0
  H  H20  1  0.22930000  0.09960000  0.24670000  1.0
  H  H21  1  0.31990000  0.68200000  0.09970000  1.0
  H  H22  1  0.74490000  0.43950000  0.00000000  1.0
  H  H23  1  0.74490000  0.00000000  0.56050000  1.0
  H  H24  1  0.68010000  0.09970000  0.31800000  1.0
  H  H25  1  0.68010000  0.68200000  0.09970000  1.0
  H  H26  1  0.22930000  0.75330000  0.90040000  1.0
  H  H27  1  0.68010000  0.68200000  0.90030000  1.0
  H  H28  1  0.56060000  0.00000000  0.74770000  1.0
  H  H29  1  0.31990000  0.31800000  0.09970000  1.0
  H  H30  1  0.25510000  0.43950000  0.00000000  1.0
  H  H31  1  0.43940000  0.00000000  0.25230000  1.0
  H  H32  1  0.77070000  0.75330000  0.90040000  1.0
  H  H33  1  0.25510000  0.00000000  0.43950000  1.0
  H  H34  1  0.77070000  0.09960000  0.75330000  1.0
  H  H35  1  0.68010000  0.31800000  0.09970000  1.0
  H  H36  1  0.31990000  0.09970000  0.31800000  1.0
  H  H37  1  0.31990000  0.09970000  0.68200000  1.0
  H  H38  1  0.31990000  0.68200000  0.90030000  1.0
  H  H39  1  0.56060000  0.74770000  0.00000000  1.0
  H  H40  1  0.68010000  0.09970000  0.68200000  1.0
  H  H41  1  0.56060000  0.25230000  0.00000000  1.0
  H  H42  1  0.31990000  0.31800000  0.90030000  1.0
  H  H43  1  0.25510000  0.00000000  0.56050000  1.0
  H  H44  1  0.31990000  0.90030000  0.68200000  1.0
  H  H45  1  0.74490000  0.56050000  0.00000000  1.0
  H  H46  1  0.68010000  0.31800000  0.90030000  1.0
  H  H47  1  0.68010000  0.90030000  0.68200000  1.0
  H  H48  1  0.22930000  0.09960000  0.75330000  1.0
  H  H49  1  0.77070000  0.24670000  0.09960000  1.0
  H  H50  1  0.77070000  0.24670000  0.90040000  1.0
  H  H51  1  0.43940000  0.00000000  0.74770000  1.0
  H  H52  1  0.25510000  0.56050000  0.00000000  1.0
  H  H53  1  0.43940000  0.25230000  0.00000000  1.0
  H  H54  1  0.77070000  0.09960000  0.24670000  1.0
  H  H55  1  0.43940000  0.74770000  0.00000000  1.0
  H  H56  1  0.22930000  0.24670000  0.09960000  1.0
  H  H57  1  0.22930000  0.24670000  0.90040000  1.0
  H  H58  1  0.22930000  0.90040000  0.24670000  1.0
  H  H59  1  0.68010000  0.90030000  0.31800000  1.0
  H  H60  1  0.56060000  0.00000000  0.25230000  1.0
  H  H61  1  0.77070000  0.75330000  0.09960000  1.0
  H  H62  1  0.31990000  0.90030000  0.31800000  1.0
  H  H63  1  0.77070000  0.90040000  0.75330000  1.0
  C  C64  1  0.30050000  0.05924000  0.30480000  1.0
  C  C65  1  0.44519000  0.64650000  0.00000000  1.0
  C  C66  1  0.24670000  0.73750000  0.05922000  1.0
  C  C67  1  0.69950000  0.05924000  0.30480000  1.0
  C  C68  1  0.35650000  0.55476000  0.00000000  1.0
  C  C69  1  0.67420000  0.00000000  0.32780000  1.0
  C  C70  1  0.38040000  0.00000000  0.37970000  1.0
  C  C71  1  0.24670000  0.26250000  0.94078000  1.0
  C  C72  1  0.67420000  0.32780000  0.00000000  1.0
  C  C73  1  0.53337000  0.70970000  0.00000000  1.0
  C  C74  1  0.16100000  0.20160000  0.00000000  1.0
  C  C75  1  0.78160000  0.24330000  0.00000000  1.0
  C  C76  1  0.32580000  0.00000000  0.67220000  1.0
  C  C77  1  0.83900000  0.20160000  0.00000000  1.0
  C  C78  1  0.83900000  0.79840000  0.00000000  1.0
  C  C79  1  0.75330000  0.26250000  0.94078000  1.0
  C  C80  1  0.38040000  0.37970000  0.00000000  1.0
  C  C81  1  0.16100000  0.00000000  0.79840000  1.0
  C  C82  1  0.69950000  0.30480000  0.94076000  1.0
  C  C83  1  0.35650000  0.00000000  0.55476000  1.0
  C  C84  1  0.75330000  0.94078000  0.26250000  1.0
  C  C85  1  0.75330000  0.73750000  0.94078000  1.0
  C  C86  1  0.44519000  0.00000000  0.35350000  1.0
  C  C87  1  0.46663000  0.29030000  0.00000000  1.0
  C  C88  1  0.75330000  0.73750000  0.05922000  1.0
  C  C89  1  0.30050000  0.30480000  0.05924000  1.0
  C  C90  1  0.38040000  0.62030000  0.00000000  1.0
  C  C91  1  0.53337000  0.00000000  0.70970000  1.0
  C  C92  1  0.24670000  0.73750000  0.94078000  1.0
  C  C93  1  0.46663000  0.00000000  0.70970000  1.0
  C  C94  1  0.55481000  0.00000000  0.64650000  1.0
  C  C95  1  0.61960000  0.37970000  0.00000000  1.0
  C  C96  1  0.21840000  0.24330000  0.00000000  1.0
  C  C97  1  0.64350000  0.00000000  0.44524000  1.0
  C  C98  1  0.78160000  0.00000000  0.75670000  1.0
  C  C99  1  0.75330000  0.05922000  0.73750000  1.0
  C  C100  1  0.78160000  0.00000000  0.24330000  1.0
  C  C101  1  0.69950000  0.30480000  0.05924000  1.0
  C  C102  1  0.35650000  0.44524000  0.00000000  1.0
  C  C103  1  0.67420000  0.67220000  0.00000000  1.0
  C  C104  1  0.70690000  0.53332000  0.00000000  1.0
  C  C105  1  0.75330000  0.94078000  0.73750000  1.0
  C  C106  1  0.53337000  0.00000000  0.29030000  1.0
  C  C107  1  0.44519000  0.00000000  0.64650000  1.0
  C  C108  1  0.61960000  0.00000000  0.62030000  1.0
  C  C109  1  0.16100000  0.00000000  0.20160000  1.0
  C  C110  1  0.21840000  0.00000000  0.75670000  1.0
  C  C111  1  0.64350000  0.00000000  0.55476000  1.0
  C  C112  1  0.83900000  0.00000000  0.20160000  1.0
  C  C113  1  0.46663000  0.70970000  0.00000000  1.0
  C  C114  1  0.75330000  0.26250000  0.05922000  1.0
  C  C115  1  0.24670000  0.94078000  0.26250000  1.0
  C  C116  1  0.30050000  0.69520000  0.05924000  1.0
  C  C117  1  0.30050000  0.94076000  0.69520000  1.0
  C  C118  1  0.32580000  0.32780000  0.00000000  1.0
  C  C119  1  0.69950000  0.69520000  0.05924000  1.0
  C  C120  1  0.24670000  0.05922000  0.73750000  1.0
  C  C121  1  0.21840000  0.75670000  0.00000000  1.0
  C  C122  1  0.32580000  0.00000000  0.32780000  1.0
  C  C123  1  0.83900000  0.00000000  0.79840000  1.0
  C  C124  1  0.29310000  0.00000000  0.46668000  1.0
  C  C125  1  0.61960000  0.00000000  0.37970000  1.0
  C  C126  1  0.29310000  0.53332000  0.00000000  1.0
  C  C127  1  0.30050000  0.05924000  0.69520000  1.0
  C  C128  1  0.67420000  0.00000000  0.67220000  1.0
  C  C129  1  0.38040000  0.00000000  0.62030000  1.0
  C  C130  1  0.64350000  0.55476000  0.00000000  1.0
  C  C131  1  0.24670000  0.05922000  0.26250000  1.0
  C  C132  1  0.70690000  0.00000000  0.53332000  1.0
  C  C133  1  0.70690000  0.46668000  0.00000000  1.0
  C  C134  1  0.53337000  0.29030000  0.00000000  1.0
  C  C135  1  0.55481000  0.35350000  0.00000000  1.0
  C  C136  1  0.24670000  0.94078000  0.73750000  1.0
  C  C137  1  0.78160000  0.75670000  0.00000000  1.0
  C  C138  1  0.69950000  0.05924000  0.69520000  1.0
  C  C139  1  0.75330000  0.05922000  0.26250000  1.0
  C  C140  1  0.29310000  0.46668000  0.00000000  1.0
  C  C141  1  0.61960000  0.62030000  0.00000000  1.0
  C  C142  1  0.29310000  0.00000000  0.53332000  1.0
  C  C143  1  0.30050000  0.94076000  0.30480000  1.0
  C  C144  1  0.32580000  0.67220000  0.00000000  1.0
  C  C145  1  0.44519000  0.35350000  0.00000000  1.0
  C  C146  1  0.16100000  0.79840000  0.00000000  1.0
  C  C147  1  0.21840000  0.00000000  0.24330000  1.0
  C  C148  1  0.69950000  0.69520000  0.94076000  1.0
  C  C149  1  0.69950000  0.94076000  0.30480000  1.0
  C  C150  1  0.64350000  0.44524000  0.00000000  1.0
  C  C151  1  0.30050000  0.30480000  0.94076000  1.0
  C  C152  1  0.24670000  0.26250000  0.05922000  1.0
  C  C153  1  0.69950000  0.94076000  0.69520000  1.0
  C  C154  1  0.70690000  0.00000000  0.46668000  1.0
  C  C155  1  0.35650000  0.00000000  0.44524000  1.0
  C  C156  1  0.55481000  0.00000000  0.35350000  1.0
  C  C157  1  0.46663000  0.00000000  0.29030000  1.0
  C  C158  1  0.55481000  0.64650000  0.00000000  1.0
  C  C159  1  0.30050000  0.69520000  0.94076000  1.0
  N  N160  1  0.50000000  0.00000000  0.60470000  1.0
  N  N161  1  0.86960000  0.05500000  0.18160000  1.0
  N  N162  1  0.13040000  0.94500000  0.81840000  1.0
  N  N163  1  0.92062000  0.14650000  0.96788000  1.0
  N  N164  1  0.13040000  0.81840000  0.94500000  1.0
  N  N165  1  0.86960000  0.18160000  0.94500000  1.0
  N  N166  1  0.86960000  0.81840000  0.05500000  1.0
  N  N167  1  0.07938000  0.03212000  0.85350000  1.0
  N  N168  1  0.07938000  0.03212000  0.14650000  1.0
  N  N169  1  0.07938000  0.85350000  0.96788000  1.0
  N  N170  1  0.92062000  0.96788000  0.85350000  1.0
  N  N171  1  0.86960000  0.05500000  0.81840000  1.0
  N  N172  1  0.13040000  0.94500000  0.18160000  1.0
  N  N173  1  0.07938000  0.14650000  0.03212000  1.0
  N  N174  1  0.86960000  0.94500000  0.81840000  1.0
  N  N175  1  0.92062000  0.96788000  0.14650000  1.0
  N  N176  1  0.86960000  0.81840000  0.94500000  1.0
  N  N177  1  0.50000000  0.60470000  0.00000000  1.0
  N  N178  1  0.60170000  0.00000000  0.50000000  1.0
  N  N179  1  0.13040000  0.05500000  0.18160000  1.0
  N  N180  1  0.13040000  0.18160000  0.05500000  1.0
  N  N181  1  0.92062000  0.14650000  0.03212000  1.0
  N  N182  1  0.86960000  0.94500000  0.18160000  1.0
  N  N183  1  0.39830000  0.00000000  0.50000000  1.0
  N  N184  1  0.50000000  0.39530000  0.00000000  1.0
  N  N185  1  0.92062000  0.85350000  0.96788000  1.0
  N  N186  1  0.92062000  0.03212000  0.85350000  1.0
  N  N187  1  0.92062000  0.03212000  0.14650000  1.0
  N  N188  1  0.39830000  0.50000000  0.00000000  1.0
  N  N189  1  0.07938000  0.96788000  0.14650000  1.0
  N  N190  1  0.13040000  0.05500000  0.81840000  1.0
  N  N191  1  0.60170000  0.50000000  0.00000000  1.0
  N  N192  1  0.07938000  0.96788000  0.85350000  1.0
  N  N193  1  0.50000000  0.00000000  0.39530000  1.0
  N  N194  1  0.86960000  0.18160000  0.05500000  1.0
  N  N195  1  0.13040000  0.81840000  0.05500000  1.0
  N  N196  1  0.92062000  0.85350000  0.03212000  1.0
  N  N197  1  0.13040000  0.18160000  0.94500000  1.0
  N  N198  1  0.07938000  0.14650000  0.96788000  1.0
  N  N199  1  0.07938000  0.85350000  0.03212000  1.0
  Cl  Cl200  1  0.00000000  0.82060000  0.17940000  1.0
  Cl  Cl201  1  0.00000000  0.17940000  0.17940000  1.0
  Cl  Cl202  1  0.00000000  0.82060000  0.82060000  1.0
  Cl  Cl203  1  0.00000000  0.17940000  0.82060000  1.0
