# generated using pymatgen
data_MnH2(CO2)2
_symmetry_space_group_name_H-M   'P 1'
_cell_length_a   10.13090000
_cell_length_b   11.68290000
_cell_length_c   14.89520000
_cell_angle_alpha   91.62500000
_cell_angle_beta   90.00000000
_cell_angle_gamma   90.00000000
_symmetry_Int_Tables_number   1
_chemical_formula_structural   MnH2(CO2)2
_chemical_formula_sum   'Mn12 H24 C24 O48'
_cell_volume   1762.26142331
_cell_formula_units_Z   12
loop_
 _symmetry_equiv_pos_site_id
 _symmetry_equiv_pos_as_xyz
  1  'x, y, z'
loop_
 _atom_site_type_symbol
 _atom_site_label
 _atom_site_symmetry_multiplicity
 _atom_site_fract_x
 _atom_site_fract_y
 _atom_site_fract_z
 _atom_site_occupancy
  Mn  Mn0  1  0.10133000  0.76050000  0.18548000  1.0
  Mn  Mn1  1  0.58347000  0.24323000  0.86900000  1.0
  Mn  Mn2  1  0.60133000  0.73950000  0.31452000  1.0
  Mn  Mn3  1  0.08347000  0.25677000  0.63100000  1.0
  Mn  Mn4  1  0.89867000  0.23950000  0.81452000  1.0
  Mn  Mn5  1  0.41653000  0.75677000  0.13100000  1.0
  Mn  Mn6  1  0.39867000  0.26050000  0.68548000  1.0
  Mn  Mn7  1  0.91653000  0.74323000  0.36900000  1.0
  Mn  Mn8  1  0.50000000  0.00000000  0.00000000  1.0
  Mn  Mn9  1  0.00000000  0.50000000  0.50000000  1.0
  Mn  Mn10  1  0.50000000  0.50000000  0.00000000  1.0
  Mn  Mn11  1  0.00000000  0.00000000  0.50000000  1.0
  H  H12  1  0.24820000  0.86190000  0.37060000  1.0
  H  H13  1  0.88560000  0.44670000  0.95720000  1.0
  H  H14  1  0.34020000  0.30850000  0.07610000  1.0
  H  H15  1  0.20330000  0.99500000  0.01030000  1.0
  H  H16  1  0.30940000  0.02410000  0.76710000  1.0
  H  H17  1  0.48130000  0.51900000  0.73320000  1.0
  H  H18  1  0.74820000  0.63810000  0.12940000  1.0
  H  H19  1  0.38560000  0.05330000  0.54280000  1.0
  H  H20  1  0.84020000  0.19150000  0.42390000  1.0
  H  H21  1  0.70330000  0.50500000  0.48970000  1.0
  H  H22  1  0.80940000  0.47590000  0.73290000  1.0
  H  H23  1  0.98130000  0.98100000  0.76680000  1.0
  H  H24  1  0.75180000  0.13810000  0.62940000  1.0
  H  H25  1  0.11440000  0.55330000  0.04280000  1.0
  H  H26  1  0.65980000  0.69150000  0.92390000  1.0
  H  H27  1  0.79670000  0.00500000  0.98970000  1.0
  H  H28  1  0.69060000  0.97590000  0.23290000  1.0
  H  H29  1  0.51870000  0.48100000  0.26680000  1.0
  H  H30  1  0.25180000  0.36190000  0.87060000  1.0
  H  H31  1  0.61440000  0.94670000  0.45720000  1.0
  H  H32  1  0.15980000  0.80850000  0.57610000  1.0
  H  H33  1  0.29670000  0.49500000  0.51030000  1.0
  H  H34  1  0.19060000  0.52410000  0.26710000  1.0
  H  H35  1  0.01870000  0.01900000  0.23320000  1.0
  C  C36  1  0.36930000  0.05210000  0.81413000  1.0
  C  C37  1  0.31980000  0.82980000  0.32965000  1.0
  C  C38  1  0.79040000  0.42630000  0.94936000  1.0
  C  C39  1  0.21960000  0.93450000  0.05405000  1.0
  C  C40  1  0.48860000  0.48040000  0.78916000  1.0
  C  C41  1  0.39930000  0.25780000  0.03280000  1.0
  C  C42  1  0.86930000  0.44790000  0.68587000  1.0
  C  C43  1  0.81980000  0.67020000  0.17035000  1.0
  C  C44  1  0.29040000  0.07370000  0.55064000  1.0
  C  C45  1  0.71960000  0.56550000  0.44595000  1.0
  C  C46  1  0.98860000  0.01960000  0.71084000  1.0
  C  C47  1  0.89930000  0.24220000  0.46720000  1.0
  C  C48  1  0.63070000  0.94790000  0.18587000  1.0
  C  C49  1  0.68020000  0.17020000  0.67035000  1.0
  C  C50  1  0.20960000  0.57370000  0.05064000  1.0
  C  C51  1  0.78040000  0.06550000  0.94595000  1.0
  C  C52  1  0.51140000  0.51960000  0.21084000  1.0
  C  C53  1  0.60070000  0.74220000  0.96720000  1.0
  C  C54  1  0.13070000  0.55210000  0.31413000  1.0
  C  C55  1  0.18020000  0.32980000  0.82965000  1.0
  C  C56  1  0.70960000  0.92630000  0.44936000  1.0
  C  C57  1  0.28040000  0.43450000  0.55405000  1.0
  C  C58  1  0.01140000  0.98040000  0.28916000  1.0
  C  C59  1  0.10070000  0.75780000  0.53280000  1.0
  O  O60  1  0.47178000  0.31387000  0.97893000  1.0
  O  O61  1  0.29441000  0.80685000  0.24786000  1.0
  O  O62  1  0.76207000  0.34655000  0.89320000  1.0
  O  O63  1  0.33845000  0.90140000  0.06071000  1.0
  O  O64  1  0.49899000  0.37271000  0.78123000  1.0
  O  O65  1  0.50070000  0.53766000  0.85892000  1.0
  O  O66  1  0.12276000  0.89304000  0.09201000  1.0
  O  O67  1  0.38900000  0.98780000  0.87648000  1.0
  O  O68  1  0.42314000  0.14863000  0.80294000  1.0
  O  O69  1  0.42699000  0.81516000  0.36791000  1.0
  O  O70  1  0.71152000  0.48132000  0.99666000  1.0
  O  O71  1  0.39461000  0.15370000  0.03742000  1.0
  O  O72  1  0.97178000  0.18613000  0.52107000  1.0
  O  O73  1  0.79441000  0.69315000  0.25214000  1.0
  O  O74  1  0.26207000  0.15345000  0.60680000  1.0
  O  O75  1  0.83845000  0.59860000  0.43929000  1.0
  O  O76  1  0.99899000  0.12729000  0.71877000  1.0
  O  O77  1  0.00070000  0.96234000  0.64108000  1.0
  O  O78  1  0.62276000  0.60696000  0.40799000  1.0
  O  O79  1  0.88900000  0.51220000  0.62352000  1.0
  O  O80  1  0.92314000  0.35137000  0.69706000  1.0
  O  O81  1  0.92699000  0.68484000  0.13209000  1.0
  O  O82  1  0.21152000  0.01868000  0.50334000  1.0
  O  O83  1  0.89461000  0.34630000  0.46258000  1.0
  O  O84  1  0.52822000  0.68613000  0.02107000  1.0
  O  O85  1  0.70559000  0.19315000  0.75214000  1.0
  O  O86  1  0.23793000  0.65345000  0.10680000  1.0
  O  O87  1  0.66155000  0.09860000  0.93929000  1.0
  O  O88  1  0.50101000  0.62729000  0.21877000  1.0
  O  O89  1  0.49930000  0.46234000  0.14108000  1.0
  O  O90  1  0.87724000  0.10696000  0.90799000  1.0
  O  O91  1  0.61100000  0.01220000  0.12352000  1.0
  O  O92  1  0.57686000  0.85137000  0.19706000  1.0
  O  O93  1  0.57301000  0.18484000  0.63209000  1.0
  O  O94  1  0.28848000  0.51868000  0.00334000  1.0
  O  O95  1  0.60539000  0.84630000  0.96258000  1.0
  O  O96  1  0.02822000  0.81387000  0.47893000  1.0
  O  O97  1  0.20559000  0.30685000  0.74786000  1.0
  O  O98  1  0.73793000  0.84655000  0.39320000  1.0
  O  O99  1  0.16155000  0.40140000  0.56071000  1.0
  O  O100  1  0.00101000  0.87271000  0.28123000  1.0
  O  O101  1  0.99930000  0.03766000  0.35892000  1.0
  O  O102  1  0.37724000  0.39304000  0.59201000  1.0
  O  O103  1  0.11100000  0.48780000  0.37648000  1.0
  O  O104  1  0.07686000  0.64863000  0.30294000  1.0
  O  O105  1  0.07301000  0.31516000  0.86791000  1.0
  O  O106  1  0.78848000  0.98132000  0.49666000  1.0
  O  O107  1  0.10539000  0.65370000  0.53742000  1.0
