# generated using pymatgen
data_YH3(C3O2)3
_symmetry_space_group_name_H-M   'P 1'
_cell_length_a   10.22300000
_cell_length_b   10.22300000
_cell_length_c   14.49300000
_cell_angle_alpha   90.00000000
_cell_angle_beta   90.00000000
_cell_angle_gamma   90.00000000
_symmetry_Int_Tables_number   1
_chemical_formula_structural   YH3(C3O2)3
_chemical_formula_sum   'Y4 H12 C36 O24'
_cell_volume   1514.65950240
_cell_formula_units_Z   4
loop_
 _symmetry_equiv_pos_site_id
 _symmetry_equiv_pos_as_xyz
  1  'x, y, z'
loop_
 _atom_site_type_symbol
 _atom_site_label
 _atom_site_symmetry_multiplicity
 _atom_site_fract_x
 _atom_site_fract_y
 _atom_site_fract_z
 _atom_site_occupancy
  Y  Y0  1  0.65023000  0.65023000  0.87500000  1.0
  Y  Y1  1  0.34977000  0.34977000  0.37500000  1.0
  Y  Y2  1  0.34977000  0.65023000  0.12500000  1.0
  Y  Y3  1  0.65023000  0.34977000  0.62500000  1.0
  H  H4  1  0.94160000  0.57570000  0.12140000  1.0
  H  H5  1  0.05840000  0.42430000  0.62140000  1.0
  H  H6  1  0.42430000  0.94160000  0.37140000  1.0
  H  H7  1  0.57570000  0.05840000  0.87140000  1.0
  H  H8  1  0.05840000  0.57570000  0.87860000  1.0
  H  H9  1  0.94160000  0.42430000  0.37860000  1.0
  H  H10  1  0.57570000  0.94160000  0.62860000  1.0
  H  H11  1  0.42430000  0.05840000  0.12860000  1.0
  H  H12  1  0.60320000  0.50000000  0.25000000  1.0
  H  H13  1  0.39680000  0.50000000  0.75000000  1.0
  H  H14  1  0.50000000  0.60320000  0.50000000  1.0
  H  H15  1  0.50000000  0.39680000  0.00000000  1.0
  C  C16  1  0.75500000  0.54900000  0.17140000  1.0
  C  C17  1  0.89400000  0.54700000  0.17210000  1.0
  C  C18  1  0.67400000  0.58900000  0.09300000  1.0
  C  C19  1  0.24500000  0.45100000  0.67140000  1.0
  C  C20  1  0.10600000  0.45300000  0.67210000  1.0
  C  C21  1  0.32600000  0.41100000  0.59300000  1.0
  C  C22  1  0.45100000  0.75500000  0.42140000  1.0
  C  C23  1  0.45300000  0.89400000  0.42210000  1.0
  C  C24  1  0.41100000  0.67400000  0.34300000  1.0
  C  C25  1  0.54900000  0.24500000  0.92140000  1.0
  C  C26  1  0.54700000  0.10600000  0.92210000  1.0
  C  C27  1  0.58900000  0.32600000  0.84300000  1.0
  C  C28  1  0.24500000  0.54900000  0.82860000  1.0
  C  C29  1  0.10600000  0.54700000  0.82790000  1.0
  C  C30  1  0.32600000  0.58900000  0.90700000  1.0
  C  C31  1  0.75500000  0.45100000  0.32860000  1.0
  C  C32  1  0.89400000  0.45300000  0.32790000  1.0
  C  C33  1  0.67400000  0.41100000  0.40700000  1.0
  C  C34  1  0.54900000  0.75500000  0.57860000  1.0
  C  C35  1  0.54700000  0.89400000  0.57790000  1.0
  C  C36  1  0.58900000  0.67400000  0.65700000  1.0
  C  C37  1  0.45100000  0.24500000  0.07860000  1.0
  C  C38  1  0.45300000  0.10600000  0.07790000  1.0
  C  C39  1  0.41100000  0.32600000  0.15700000  1.0
  C  C40  1  0.69400000  0.50000000  0.25000000  1.0
  C  C41  1  0.95700000  0.50000000  0.25000000  1.0
  C  C42  1  0.11400000  0.50000000  0.25000000  1.0
  C  C43  1  0.30600000  0.50000000  0.75000000  1.0
  C  C44  1  0.04300000  0.50000000  0.75000000  1.0
  C  C45  1  0.88600000  0.50000000  0.75000000  1.0
  C  C46  1  0.50000000  0.69400000  0.50000000  1.0
  C  C47  1  0.50000000  0.95700000  0.50000000  1.0
  C  C48  1  0.50000000  0.11400000  0.50000000  1.0
  C  C49  1  0.50000000  0.30600000  0.00000000  1.0
  C  C50  1  0.50000000  0.04300000  0.00000000  1.0
  C  C51  1  0.50000000  0.88600000  0.00000000  1.0
  O  O52  1  0.73900000  0.59480000  0.01440000  1.0
  O  O53  1  0.56100000  0.61600000  0.10200000  1.0
  O  O54  1  0.16460000  0.42210000  0.30750000  1.0
  O  O55  1  0.26100000  0.40520000  0.51440000  1.0
  O  O56  1  0.43900000  0.38400000  0.60200000  1.0
  O  O57  1  0.83540000  0.57790000  0.80750000  1.0
  O  O58  1  0.40520000  0.73900000  0.26440000  1.0
  O  O59  1  0.38400000  0.56100000  0.35200000  1.0
  O  O60  1  0.57790000  0.16460000  0.55750000  1.0
  O  O61  1  0.59480000  0.26100000  0.76440000  1.0
  O  O62  1  0.61600000  0.43900000  0.85200000  1.0
  O  O63  1  0.42210000  0.83540000  0.05750000  1.0
  O  O64  1  0.26100000  0.59480000  0.98560000  1.0
  O  O65  1  0.43900000  0.61600000  0.89800000  1.0
  O  O66  1  0.83540000  0.42210000  0.69250000  1.0
  O  O67  1  0.73900000  0.40520000  0.48560000  1.0
  O  O68  1  0.56100000  0.38400000  0.39800000  1.0
  O  O69  1  0.16460000  0.57790000  0.19250000  1.0
  O  O70  1  0.59480000  0.73900000  0.73560000  1.0
  O  O71  1  0.61600000  0.56100000  0.64800000  1.0
  O  O72  1  0.42210000  0.16460000  0.44250000  1.0
  O  O73  1  0.40520000  0.26100000  0.23560000  1.0
  O  O74  1  0.38400000  0.43900000  0.14800000  1.0
  O  O75  1  0.57790000  0.83540000  0.94250000  1.0
