# generated using pymatgen
data_Zr3H14(C3O2)8
_symmetry_space_group_name_H-M   'P 1'
_cell_length_a   14.62220000
_cell_length_b   14.62220000
_cell_length_c   14.62220000
_cell_angle_alpha   93.40190000
_cell_angle_beta   118.05600000
_cell_angle_gamma   118.05600000
_symmetry_Int_Tables_number   1
_chemical_formula_structural   Zr3H14(C3O2)8
_chemical_formula_sum   'Zr6 H28 C48 O32'
_cell_volume   2271.28405446
_cell_formula_units_Z   2
loop_
 _symmetry_equiv_pos_site_id
 _symmetry_equiv_pos_as_xyz
  1  'x, y, z'
loop_
 _atom_site_type_symbol
 _atom_site_label
 _atom_site_symmetry_multiplicity
 _atom_site_fract_x
 _atom_site_fract_y
 _atom_site_fract_z
 _atom_site_occupancy
  Zr  Zr0  1  0.00000000  0.11844000  0.88156000  1.0
  Zr  Zr1  1  0.00000000  0.87559000  0.87559000  1.0
  Zr  Zr2  1  0.00000000  0.12443000  0.12443000  1.0
  Zr  Zr3  1  0.00000000  0.88158000  0.11844000  1.0
  Zr  Zr4  1  0.23688000  0.11844000  0.11844000  1.0
  Zr  Zr5  1  0.76314000  0.88158000  0.88158000  1.0
  H  H6  1  0.18606000  0.08871000  0.90265000  1.0
  H  H7  1  0.01860000  0.40906000  0.86576000  1.0
  H  H8  1  0.72574000  0.13984000  0.58018000  1.0
  H  H9  1  0.98174000  0.14166000  0.41928000  1.0
  H  H10  1  0.72238000  0.14166000  0.15992000  1.0
  H  H11  1  0.55966000  0.13984000  0.41410000  1.0
  H  H12  1  0.18608000  0.09736000  0.28342000  1.0
  H  H13  1  0.01858000  0.60956000  0.15284000  1.0
  H  H14  1  0.44034000  0.85443000  0.58015000  1.0
  H  H15  1  0.45676000  0.84722000  0.86574000  1.0
  H  H16  1  0.54328000  0.40904000  0.39044000  1.0
  H  H17  1  0.01820000  0.43748000  0.15988000  1.0
  H  H18  1  0.45672000  0.60956000  0.59098000  1.0
  H  H19  1  0.72572000  0.58583000  0.14547000  1.0
  H  H20  1  0.81394000  0.71662000  0.90268000  1.0
  H  H21  1  0.27762000  0.84015000  0.85831000  1.0
  H  H22  1  0.44036000  0.58583000  0.86011000  1.0
  H  H23  1  0.98148000  0.84722000  0.39046000  1.0
  H  H24  1  0.55966000  0.41976000  0.14548000  1.0
  H  H25  1  0.54324000  0.13419000  0.15287000  1.0
  H  H26  1  0.27760000  0.43748000  0.41928000  1.0
  H  H27  1  0.72240000  0.58073000  0.56255000  1.0
  H  H28  1  0.01818000  0.58073000  0.85833000  1.0
  H  H29  1  0.98132000  0.13419000  0.59095000  1.0
  H  H30  1  0.98184000  0.84015000  0.56253000  1.0
  H  H31  1  0.81394000  0.09736000  0.91128000  1.0
  H  H32  1  0.27428000  0.85443000  0.41409000  1.0
  H  H33  1  0.27428000  0.41976000  0.86010000  1.0
  C  C34  1  0.37528000  0.90516000  0.92376000  1.0
  C  C35  1  0.69542000  0.99810000  0.69352000  1.0
  C  C36  1  0.01752000  0.60285000  0.00483000  1.0
  C  C37  1  0.52634000  0.45422000  0.43546000  1.0
  C  C38  1  0.62658000  0.54934000  0.08288000  1.0
  C  C39  1  0.01864000  0.47016000  0.09486000  1.0
  C  C40  1  0.40198000  0.41468000  0.39716000  1.0
  C  C41  1  0.01878000  0.56457000  0.09091000  1.0
  C  C42  1  0.98248000  0.99519000  0.39717000  1.0
  C  C43  1  0.62470000  0.07621000  0.09487000  1.0
  C  C44  1  0.70152000  0.00087000  0.01219000  1.0
  C  C45  1  0.98140000  0.90516000  0.52988000  1.0
  C  C46  1  0.52632000  0.07208000  0.09092000  1.0
  C  C47  1  0.29848000  0.98780000  0.99916000  1.0
  C  C48  1  0.30458000  0.30646000  0.00188000  1.0
  C  C49  1  0.59802000  0.60285000  0.58533000  1.0
  C  C50  1  0.01132000  0.70067000  0.99917000  1.0
  C  C51  1  0.69544000  0.69734000  0.00190000  1.0
  C  C52  1  0.98126000  0.90912000  0.43546000  1.0
  C  C53  1  0.59804000  0.99520000  0.01272000  1.0
  C  C54  1  0.47366000  0.56457000  0.54579000  1.0
  C  C55  1  0.37342000  0.45630000  0.92274000  1.0
  C  C56  1  0.46646000  0.54934000  0.92276000  1.0
  C  C57  1  0.98866000  0.98781000  0.68933000  1.0
  C  C58  1  0.01752000  0.41468000  0.01270000  1.0
  C  C59  1  0.01860000  0.54849000  0.92377000  1.0
  C  C60  1  0.40198000  0.98729000  0.00483000  1.0
  C  C61  1  0.53356000  0.07720000  0.45062000  1.0
  C  C62  1  0.46646000  0.91706000  0.54364000  1.0
  C  C63  1  0.01876000  0.45422000  0.92788000  1.0
  C  C64  1  0.62470000  0.54847000  0.52987000  1.0
  C  C65  1  0.98134000  0.07622000  0.45152000  1.0
  C  C66  1  0.59454000  0.59724000  0.00270000  1.0
  C  C67  1  0.53356000  0.45630000  0.08288000  1.0
  C  C68  1  0.47366000  0.90912000  0.92786000  1.0
  C  C69  1  0.62658000  0.07720000  0.54364000  1.0
  C  C70  1  0.29852000  0.31069000  0.29935000  1.0
  C  C71  1  0.30458000  0.99810000  0.30268000  1.0
  C  C72  1  0.98246000  0.98729000  0.58531000  1.0
  C  C73  1  0.40548000  0.40817000  0.00269000  1.0
  C  C74  1  0.40548000  0.99727000  0.40273000  1.0
  C  C75  1  0.37342000  0.91706000  0.45060000  1.0
  C  C76  1  0.01134000  0.31069000  0.01217000  1.0
  C  C77  1  0.59454000  0.99727000  0.59179000  1.0
  C  C78  1  0.37530000  0.47016000  0.45152000  1.0
  C  C79  1  0.98868000  0.00087000  0.29935000  1.0
  C  C80  1  0.98116000  0.07208000  0.54576000  1.0
  C  C81  1  0.70150000  0.70067000  0.68935000  1.0
  O  O82  1  0.86710000  0.06977000  0.93685000  1.0
  O  O83  1  0.00656000  0.73385000  0.91917000  1.0
  O  O84  1  0.66776000  0.92420000  0.93266000  1.0
  O  O85  1  0.99344000  0.08087000  0.26617000  1.0
  O  O86  1  0.65920000  0.73585000  0.92565000  1.0
  O  O87  1  0.18982000  0.26644000  0.92562000  1.0
  O  O88  1  0.18530000  0.27272000  0.26614000  1.0
  O  O89  1  0.13290000  0.06314000  0.93024000  1.0
  O  O90  1  0.99154000  0.92420000  0.25644000  1.0
  O  O91  1  0.65920000  0.92336000  0.73356000  1.0
  O  O92  1  0.00658000  0.27272000  0.08742000  1.0
  O  O93  1  0.18980000  0.92336000  0.26416000  1.0
  O  O94  1  0.18528000  0.91256000  0.91916000  1.0
  O  O95  1  0.34082000  0.07437000  0.26417000  1.0
  O  O96  1  0.09758000  0.14895000  0.05137000  1.0
  O  O97  1  0.00842000  0.74354000  0.07582000  1.0
  O  O98  1  0.81470000  0.08087000  0.08743000  1.0
  O  O99  1  0.66772000  0.74354000  0.73512000  1.0
  O  O100  1  0.13292000  0.06977000  0.20267000  1.0
  O  O101  1  0.86710000  0.79736000  0.93026000  1.0
  O  O102  1  0.81468000  0.73385000  0.72729000  1.0
  O  O103  1  0.33224000  0.06734000  0.07582000  1.0
  O  O104  1  0.99340000  0.91256000  0.72728000  1.0
  O  O105  1  0.99152000  0.06734000  0.73510000  1.0
  O  O106  1  0.33228000  0.26492000  0.25644000  1.0
  O  O107  1  0.34082000  0.26644000  0.07662000  1.0
  O  O108  1  0.00848000  0.26492000  0.93264000  1.0
  O  O109  1  0.09758000  0.94864000  0.04622000  1.0
  O  O110  1  0.81020000  0.73585000  0.07665000  1.0
  O  O111  1  0.81020000  0.07437000  0.73355000  1.0
  O  O112  1  0.90242000  0.94864000  0.85106000  1.0
  O  O113  1  0.90242000  0.95380000  0.05138000  1.0
