# generated using pymatgen
data_Cu2H3W6C5N2O17
_symmetry_space_group_name_H-M   'P 1'
_cell_length_a   12.71370000
_cell_length_b   13.33010000
_cell_length_c   13.40340000
_cell_angle_alpha   64.67600000
_cell_angle_beta   61.81000000
_cell_angle_gamma   84.07900000
_symmetry_Int_Tables_number   1
_chemical_formula_structural   Cu2H3W6C5N2O17
_chemical_formula_sum   'Cu4 H6 W12 C10 N4 O34'
_cell_volume   1795.70836592
_cell_formula_units_Z   2
loop_
 _symmetry_equiv_pos_site_id
 _symmetry_equiv_pos_as_xyz
  1  'x, y, z'
loop_
 _atom_site_type_symbol
 _atom_site_label
 _atom_site_symmetry_multiplicity
 _atom_site_fract_x
 _atom_site_fract_y
 _atom_site_fract_z
 _atom_site_occupancy
  Cu  Cu0  1  0.98900000  0.99700000  0.00900000  1.0
  Cu  Cu1  1  0.01100000  0.00300000  0.99100000  1.0
  Cu  Cu2  1  0.00000000  0.50000000  0.50000000  1.0
  Cu  Cu3  1  0.50000000  0.50000000  0.00000000  1.0
  H  H4  1  0.93320000  0.45650000  0.76220000  1.0
  H  H5  1  0.73930000  0.51750000  0.59100000  1.0
  H  H6  1  0.76550000  0.45370000  0.93920000  1.0
  H  H7  1  0.06680000  0.54350000  0.23780000  1.0
  H  H8  1  0.26070000  0.48250000  0.40900000  1.0
  H  H9  1  0.23450000  0.54630000  0.06080000  1.0
  W  W10  1  0.85169000  0.26308000  0.54495000  1.0
  W  W11  1  0.97449000  0.74266000  0.76313000  1.0
  W  W12  1  0.82595000  0.96526000  0.75227000  1.0
  W  W13  1  0.00382000  0.20566000  0.70131000  1.0
  W  W14  1  0.85080000  0.01618000  0.29184000  1.0
  W  W15  1  0.82791000  0.82173000  0.59619000  1.0
  W  W16  1  0.14831000  0.73692000  0.45505000  1.0
  W  W17  1  0.02551000  0.25734000  0.23687000  1.0
  W  W18  1  0.17405000  0.03474000  0.24773000  1.0
  W  W19  1  0.99618000  0.79434000  0.29869000  1.0
  W  W20  1  0.14920000  0.98382000  0.70816000  1.0
  W  W21  1  0.17209000  0.17827000  0.40381000  1.0
  C  C22  1  0.86050000  0.47010000  0.76090000  1.0
  C  C23  1  0.74680000  0.50650000  0.66060000  1.0
  C  C24  1  0.64730000  0.50660000  0.76720000  1.0
  C  C25  1  0.75960000  0.46900000  0.86770000  1.0
  C  C26  1  0.53060000  0.52930000  0.77370000  1.0
  C  C27  1  0.13950000  0.52990000  0.23910000  1.0
  C  C28  1  0.25320000  0.49350000  0.33940000  1.0
  C  C29  1  0.35270000  0.49340000  0.23280000  1.0
  C  C30  1  0.24040000  0.53100000  0.13230000  1.0
  C  C31  1  0.46940000  0.47070000  0.22630000  1.0
  N  N32  1  0.85560000  0.49010000  0.65840000  1.0
  N  N33  1  0.65440000  0.48970000  0.86760000  1.0
  N  N34  1  0.14440000  0.50990000  0.34160000  1.0
  N  N35  1  0.34560000  0.51030000  0.13240000  1.0
  O  O36  1  0.90800000  0.40770000  0.48310000  1.0
  O  O37  1  0.82650000  0.08810000  0.62030000  1.0
  O  O38  1  0.86390000  0.69940000  0.73180000  1.0
  O  O39  1  0.83520000  0.95850000  0.47250000  1.0
  O  O40  1  0.73930000  0.87180000  0.72890000  1.0
  O  O41  1  0.86290000  0.81440000  0.85650000  1.0
  O  O42  1  0.03600000  0.21970000  0.51540000  1.0
  O  O43  1  0.09990000  0.84200000  0.73560000  1.0
  O  O44  1  0.84660000  0.85510000  0.34090000  1.0
  O  O45  1  0.96070000  0.02630000  0.74270000  1.0
  O  O46  1  0.96060000  0.90170000  0.61600000  1.0
  O  O47  1  0.85210000  0.22520000  0.70350000  1.0
  O  O48  1  0.89570000  0.26440000  0.38830000  1.0
  O  O49  1  0.89920000  0.04490000  0.13120000  1.0
  O  O50  1  0.45060000  0.53770000  0.87360000  1.0
  O  O51  1  0.51450000  0.55000000  0.68090000  1.0
  O  O52  1  0.85880000  0.91000000  0.03770000  1.0
  O  O53  1  0.09200000  0.59230000  0.51690000  1.0
  O  O54  1  0.17350000  0.91190000  0.37970000  1.0
  O  O55  1  0.13610000  0.30060000  0.26820000  1.0
  O  O56  1  0.16480000  0.04150000  0.52750000  1.0
  O  O57  1  0.26070000  0.12820000  0.27110000  1.0
  O  O58  1  0.13710000  0.18560000  0.14350000  1.0
  O  O59  1  0.96400000  0.78030000  0.48460000  1.0
  O  O60  1  0.90010000  0.15800000  0.26440000  1.0
  O  O61  1  0.15340000  0.14490000  0.65910000  1.0
  O  O62  1  0.03930000  0.97370000  0.25730000  1.0
  O  O63  1  0.03940000  0.09830000  0.38400000  1.0
  O  O64  1  0.14790000  0.77480000  0.29650000  1.0
  O  O65  1  0.10430000  0.73560000  0.61170000  1.0
  O  O66  1  0.10080000  0.95510000  0.86880000  1.0
  O  O67  1  0.54940000  0.46230000  0.12640000  1.0
  O  O68  1  0.48550000  0.45000000  0.31910000  1.0
  O  O69  1  0.14120000  0.09000000  0.96230000  1.0
