# generated using pymatgen
data_ZnH3C9O4
_symmetry_space_group_name_H-M   'P 1'
_cell_length_a   15.41280000
_cell_length_b   15.41280000
_cell_length_c   15.41280000
_cell_angle_alpha   76.34120000
_cell_angle_beta   76.34120000
_cell_angle_gamma   76.34120000
_symmetry_Int_Tables_number   1
_chemical_formula_structural   ZnH3C9O4
_chemical_formula_sum   'Zn6 H18 C54 O24'
_cell_volume   3393.54606853
_cell_formula_units_Z   6
loop_
 _symmetry_equiv_pos_site_id
 _symmetry_equiv_pos_as_xyz
  1  'x, y, z'
loop_
 _atom_site_type_symbol
 _atom_site_label
 _atom_site_symmetry_multiplicity
 _atom_site_fract_x
 _atom_site_fract_y
 _atom_site_fract_z
 _atom_site_occupancy
  Zn  Zn0  1  0.08821000  0.51326000  0.51326000  1.0
  Zn  Zn1  1  0.51326000  0.08821000  0.51326000  1.0
  Zn  Zn2  1  0.51326000  0.51326000  0.08821000  1.0
  Zn  Zn3  1  0.48674000  0.91179000  0.48674000  1.0
  Zn  Zn4  1  0.91179000  0.48674000  0.48674000  1.0
  Zn  Zn5  1  0.48674000  0.48674000  0.91179000  1.0
  H  H6  1  0.98680000  0.19690000  0.50640000  1.0
  H  H7  1  0.50640000  0.98680000  0.19690000  1.0
  H  H8  1  0.19690000  0.50640000  0.98680000  1.0
  H  H9  1  0.80310000  0.01320000  0.49360000  1.0
  H  H10  1  0.01320000  0.49360000  0.80310000  1.0
  H  H11  1  0.49360000  0.80310000  0.01320000  1.0
  H  H12  1  0.01320000  0.80310000  0.49360000  1.0
  H  H13  1  0.49360000  0.01320000  0.80310000  1.0
  H  H14  1  0.80310000  0.49360000  0.01320000  1.0
  H  H15  1  0.19690000  0.98680000  0.50640000  1.0
  H  H16  1  0.98680000  0.50640000  0.19690000  1.0
  H  H17  1  0.50640000  0.19690000  0.98680000  1.0
  H  H18  1  0.23250000  0.23250000  0.52300000  1.0
  H  H19  1  0.52300000  0.23250000  0.23250000  1.0
  H  H20  1  0.23250000  0.52300000  0.23250000  1.0
  H  H21  1  0.76750000  0.76750000  0.47700000  1.0
  H  H22  1  0.76750000  0.47700000  0.76750000  1.0
  H  H23  1  0.47700000  0.76750000  0.76750000  1.0
  C  C24  1  0.06550000  0.32924000  0.51427000  1.0
  C  C25  1  0.10383000  0.23005000  0.51534000  1.0
  C  C26  1  0.04762000  0.17342000  0.50962000  1.0
  C  C27  1  0.51427000  0.06550000  0.32924000  1.0
  C  C28  1  0.51534000  0.10383000  0.23005000  1.0
  C  C29  1  0.50962000  0.04762000  0.17342000  1.0
  C  C30  1  0.32924000  0.51427000  0.06550000  1.0
  C  C31  1  0.23005000  0.51534000  0.10383000  1.0
  C  C32  1  0.17342000  0.50962000  0.04762000  1.0
  C  C33  1  0.67076000  0.93450000  0.48573000  1.0
  C  C34  1  0.76995000  0.89617000  0.48466000  1.0
  C  C35  1  0.82658000  0.95238000  0.49038000  1.0
  C  C36  1  0.93450000  0.48573000  0.67076000  1.0
  C  C37  1  0.89617000  0.48466000  0.76995000  1.0
  C  C38  1  0.95238000  0.49038000  0.82658000  1.0
  C  C39  1  0.48573000  0.67076000  0.93450000  1.0
  C  C40  1  0.48466000  0.76995000  0.89617000  1.0
  C  C41  1  0.49038000  0.82658000  0.95238000  1.0
  C  C42  1  0.93450000  0.67076000  0.48573000  1.0
  C  C43  1  0.89617000  0.76995000  0.48466000  1.0
  C  C44  1  0.95238000  0.82658000  0.49038000  1.0
  C  C45  1  0.48573000  0.93450000  0.67076000  1.0
  C  C46  1  0.48466000  0.89617000  0.76995000  1.0
  C  C47  1  0.49038000  0.95238000  0.82658000  1.0
  C  C48  1  0.67076000  0.48573000  0.93450000  1.0
  C  C49  1  0.76995000  0.48466000  0.89617000  1.0
  C  C50  1  0.82658000  0.49038000  0.95238000  1.0
  C  C51  1  0.32924000  0.06550000  0.51427000  1.0
  C  C52  1  0.23005000  0.10383000  0.51534000  1.0
  C  C53  1  0.17342000  0.04762000  0.50962000  1.0
  C  C54  1  0.06550000  0.51427000  0.32924000  1.0
  C  C55  1  0.10383000  0.51534000  0.23005000  1.0
  C  C56  1  0.04762000  0.50962000  0.17342000  1.0
  C  C57  1  0.51427000  0.32924000  0.06550000  1.0
  C  C58  1  0.51534000  0.23005000  0.10383000  1.0
  C  C59  1  0.50962000  0.17342000  0.04762000  1.0
  C  C60  1  0.08242000  0.08242000  0.50867000  1.0
  C  C61  1  0.02317000  0.02317000  0.50237000  1.0
  C  C62  1  0.19501000  0.19501000  0.51866000  1.0
  C  C63  1  0.50867000  0.08242000  0.08242000  1.0
  C  C64  1  0.50237000  0.02317000  0.02317000  1.0
  C  C65  1  0.51866000  0.19501000  0.19501000  1.0
  C  C66  1  0.08242000  0.50867000  0.08242000  1.0
  C  C67  1  0.02317000  0.50237000  0.02317000  1.0
  C  C68  1  0.19501000  0.51866000  0.19501000  1.0
  C  C69  1  0.91758000  0.91758000  0.49133000  1.0
  C  C70  1  0.97683000  0.97683000  0.49763000  1.0
  C  C71  1  0.80499000  0.80499000  0.48134000  1.0
  C  C72  1  0.91758000  0.49133000  0.91758000  1.0
  C  C73  1  0.97683000  0.49763000  0.97683000  1.0
  C  C74  1  0.80499000  0.48134000  0.80499000  1.0
  C  C75  1  0.49133000  0.91758000  0.91758000  1.0
  C  C76  1  0.49763000  0.97683000  0.97683000  1.0
  C  C77  1  0.48134000  0.80499000  0.80499000  1.0
  O  O78  1  0.98579000  0.35733000  0.50559000  1.0
  O  O79  1  0.11925000  0.37579000  0.52149000  1.0
  O  O80  1  0.50559000  0.98579000  0.35733000  1.0
  O  O81  1  0.52149000  0.11925000  0.37579000  1.0
  O  O82  1  0.35733000  0.50559000  0.98579000  1.0
  O  O83  1  0.37579000  0.52149000  0.11925000  1.0
  O  O84  1  0.64267000  0.01421000  0.49441000  1.0
  O  O85  1  0.62421000  0.88075000  0.47851000  1.0
  O  O86  1  0.01421000  0.49441000  0.64267000  1.0
  O  O87  1  0.88075000  0.47851000  0.62421000  1.0
  O  O88  1  0.49441000  0.64267000  0.01421000  1.0
  O  O89  1  0.47851000  0.62421000  0.88075000  1.0
  O  O90  1  0.01421000  0.64267000  0.49441000  1.0
  O  O91  1  0.88075000  0.62421000  0.47851000  1.0
  O  O92  1  0.49441000  0.01421000  0.64267000  1.0
  O  O93  1  0.47851000  0.88075000  0.62421000  1.0
  O  O94  1  0.64267000  0.49441000  0.01421000  1.0
  O  O95  1  0.62421000  0.47851000  0.88075000  1.0
  O  O96  1  0.35733000  0.98579000  0.50559000  1.0
  O  O97  1  0.37579000  0.11925000  0.52149000  1.0
  O  O98  1  0.98579000  0.50559000  0.35733000  1.0
  O  O99  1  0.11925000  0.52149000  0.37579000  1.0
  O  O100  1  0.50559000  0.35733000  0.98579000  1.0
  O  O101  1  0.52149000  0.37579000  0.11925000  1.0
