# generated using pymatgen
data_Pr4Cu4H38C78N13ClO27
_symmetry_space_group_name_H-M   'P 1'
_cell_length_a   17.38490000
_cell_length_b   21.03310000
_cell_length_c   23.40900000
_cell_angle_alpha   90.00000000
_cell_angle_beta   91.97800000
_cell_angle_gamma   90.00000000
_symmetry_Int_Tables_number   1
_chemical_formula_structural   Pr4Cu4H38C78N13ClO27
_chemical_formula_sum   'Pr16 Cu16 H152 C312 N52 Cl4 O108'
_cell_volume   8554.59582304
_cell_formula_units_Z   4
loop_
 _symmetry_equiv_pos_site_id
 _symmetry_equiv_pos_as_xyz
  1  'x, y, z'
loop_
 _atom_site_type_symbol
 _atom_site_label
 _atom_site_symmetry_multiplicity
 _atom_site_fract_x
 _atom_site_fract_y
 _atom_site_fract_z
 _atom_site_occupancy
  Pr  Pr0  1  0.57184000  0.83353000  0.90633000  1.0
  Pr  Pr1  1  0.45032000  0.82764000  0.07550000  1.0
  Pr  Pr2  1  0.93508000  0.99691000  0.58503000  1.0
  Pr  Pr3  1  0.76965000  0.08619000  0.75176000  1.0
  Pr  Pr4  1  0.92816000  0.33353000  0.59367000  1.0
  Pr  Pr5  1  0.04968000  0.32764000  0.42450000  1.0
  Pr  Pr6  1  0.56492000  0.49691000  0.91497000  1.0
  Pr  Pr7  1  0.73035000  0.58619000  0.74824000  1.0
  Pr  Pr8  1  0.42816000  0.16647000  0.09367000  1.0
  Pr  Pr9  1  0.54968000  0.17236000  0.92450000  1.0
  Pr  Pr10  1  0.06492000  0.00309000  0.41497000  1.0
  Pr  Pr11  1  0.23035000  0.91381000  0.24824000  1.0
  Pr  Pr12  1  0.07184000  0.66647000  0.40633000  1.0
  Pr  Pr13  1  0.95032000  0.67236000  0.57550000  1.0
  Pr  Pr14  1  0.43508000  0.50309000  0.08503000  1.0
  Pr  Pr15  1  0.26965000  0.41381000  0.25176000  1.0
  Cu  Cu16  1  0.23025000  0.83495000  0.72557000  1.0
  Cu  Cu17  1  0.27484000  0.00191000  0.76840000  1.0
  Cu  Cu18  1  0.28887000  0.66984000  0.76000000  1.0
  Cu  Cu19  1  0.49021000  0.11668000  0.50643000  1.0
  Cu  Cu20  1  0.26975000  0.33495000  0.77443000  1.0
  Cu  Cu21  1  0.22516000  0.50191000  0.73160000  1.0
  Cu  Cu22  1  0.21113000  0.16984000  0.74000000  1.0
  Cu  Cu23  1  0.00979000  0.61668000  0.99357000  1.0
  Cu  Cu24  1  0.76975000  0.16505000  0.27443000  1.0
  Cu  Cu25  1  0.72516000  0.99809000  0.23160000  1.0
  Cu  Cu26  1  0.71113000  0.33016000  0.24000000  1.0
  Cu  Cu27  1  0.50979000  0.88332000  0.49357000  1.0
  Cu  Cu28  1  0.73025000  0.66505000  0.22557000  1.0
  Cu  Cu29  1  0.77484000  0.49809000  0.26840000  1.0
  Cu  Cu30  1  0.78887000  0.83016000  0.26000000  1.0
  Cu  Cu31  1  0.99021000  0.38332000  0.00643000  1.0
  H  H32  1  0.39860000  0.87870000  0.77500000  1.0
  H  H33  1  0.54400000  0.84830000  0.65020000  1.0
  H  H34  1  0.44120000  0.82540000  0.59040000  1.0
  H  H35  1  0.33480000  0.84280000  0.53410000  1.0
  H  H36  1  0.22620000  0.81790000  0.48040000  1.0
  H  H37  1  0.11790000  0.78810000  0.62580000  1.0
  H  H38  1  0.06070000  0.88120000  0.67940000  1.0
  H  H39  1  0.92230000  0.85690000  0.81070000  1.0
  H  H40  1  0.02850000  0.84400000  0.86950000  1.0
  H  H41  1  0.13570000  0.84650000  0.92200000  1.0
  H  H42  1  0.25060000  0.82280000  0.96930000  1.0
  H  H43  1  0.34430000  0.78900000  0.82010000  1.0
  H  H44  1  0.96680000  0.01550000  0.84580000  1.0
  H  H45  1  0.11070000  0.03770000  0.71790000  1.0
  H  H46  1  0.07090000  0.99950000  0.90620000  1.0
  H  H47  1  0.18200000  0.00250000  0.96260000  1.0
  H  H48  1  0.29440000  0.97810000  0.01080000  1.0
  H  H49  1  0.39260000  0.94980000  0.86190000  1.0
  H  H50  1  0.43290000  0.05860000  0.81930000  1.0
  H  H51  1  0.41570000  0.97070000  0.30240000  1.0
  H  H52  1  0.51850000  0.99370000  0.36440000  1.0
  H  H53  1  0.37480000  0.01860000  0.57680000  1.0
  H  H54  1  0.26150000  0.99680000  0.52580000  1.0
  H  H55  1  0.16200000  0.95660000  0.67040000  1.0
  H  H56  1  0.45130000  0.71430000  0.81050000  1.0
  H  H57  1  0.59650000  0.68390000  0.68680000  1.0
  H  H58  1  0.49570000  0.67370000  0.62380000  1.0
  H  H59  1  0.39040000  0.68090000  0.56610000  1.0
  H  H60  1  0.27790000  0.66140000  0.51380000  1.0
  H  H61  1  0.17360000  0.62650000  0.65850000  1.0
  H  H62  1  0.13190000  0.71150000  0.70700000  1.0
  H  H63  1  0.47810000  0.80480000  0.32950000  1.0
  H  H64  1  0.57620000  0.82900000  0.39340000  1.0
  H  H65  1  0.18290000  0.67810000  0.95200000  1.0
  H  H66  1  0.29140000  0.65050000  0.00500000  1.0
  H  H67  1  0.40010000  0.61580000  0.86230000  1.0
  H  H68  1  0.64220000  0.10020000  0.58380000  1.0
  H  H69  1  0.66980000  0.91230000  0.56890000  1.0
  H  H70  1  0.10140000  0.37870000  0.72500000  1.0
  H  H71  1  0.95600000  0.34830000  0.84980000  1.0
  H  H72  1  0.05880000  0.32540000  0.90960000  1.0
  H  H73  1  0.16520000  0.34280000  0.96590000  1.0
  H  H74  1  0.27380000  0.31790000  0.01960000  1.0
  H  H75  1  0.38210000  0.28810000  0.87420000  1.0
  H  H76  1  0.43930000  0.38120000  0.82060000  1.0
  H  H77  1  0.57770000  0.35690000  0.68930000  1.0
  H  H78  1  0.47150000  0.34400000  0.63050000  1.0
  H  H79  1  0.36430000  0.34650000  0.57800000  1.0
  H  H80  1  0.24940000  0.32280000  0.53070000  1.0
  H  H81  1  0.15570000  0.28900000  0.67990000  1.0
  H  H82  1  0.53320000  0.51550000  0.65420000  1.0
  H  H83  1  0.38930000  0.53770000  0.78210000  1.0
  H  H84  1  0.42910000  0.49950000  0.59380000  1.0
  H  H85  1  0.31800000  0.50250000  0.53740000  1.0
  H  H86  1  0.20560000  0.47810000  0.48920000  1.0
  H  H87  1  0.10740000  0.44980000  0.63810000  1.0
  H  H88  1  0.06710000  0.55860000  0.68070000  1.0
  H  H89  1  0.08430000  0.47070000  0.19760000  1.0
  H  H90  1  0.98150000  0.49370000  0.13560000  1.0
  H  H91  1  0.12520000  0.51860000  0.92320000  1.0
  H  H92  1  0.23850000  0.49680000  0.97420000  1.0
  H  H93  1  0.33800000  0.45660000  0.82960000  1.0
  H  H94  1  0.04870000  0.21430000  0.68950000  1.0
  H  H95  1  0.90350000  0.18390000  0.81320000  1.0
  H  H96  1  0.00430000  0.17370000  0.87620000  1.0
  H  H97  1  0.10960000  0.18090000  0.93390000  1.0
  H  H98  1  0.22210000  0.16140000  0.98620000  1.0
  H  H99  1  0.32640000  0.12650000  0.84150000  1.0
  H  H100  1  0.36810000  0.21150000  0.79300000  1.0
  H  H101  1  0.02190000  0.30480000  0.17050000  1.0
  H  H102  1  0.92380000  0.32900000  0.10660000  1.0
  H  H103  1  0.31710000  0.17810000  0.54800000  1.0
  H  H104  1  0.20860000  0.15050000  0.49500000  1.0
  H  H105  1  0.09990000  0.11580000  0.63770000  1.0
  H  H106  1  0.85780000  0.60020000  0.91620000  1.0
  H  H107  1  0.83020000  0.41230000  0.93110000  1.0
  H  H108  1  0.60140000  0.12130000  0.22500000  1.0
  H  H109  1  0.45600000  0.15170000  0.34980000  1.0
  H  H110  1  0.55880000  0.17460000  0.40960000  1.0
  H  H111  1  0.66520000  0.15720000  0.46590000  1.0
  H  H112  1  0.77380000  0.18210000  0.51960000  1.0
  H  H113  1  0.88210000  0.21190000  0.37420000  1.0
  H  H114  1  0.93930000  0.11880000  0.32060000  1.0
  H  H115  1  0.07770000  0.14310000  0.18930000  1.0
  H  H116  1  0.97150000  0.15600000  0.13050000  1.0
  H  H117  1  0.86430000  0.15350000  0.07800000  1.0
  H  H118  1  0.74940000  0.17720000  0.03070000  1.0
  H  H119  1  0.65570000  0.21100000  0.17990000  1.0
  H  H120  1  0.03320000  0.98450000  0.15420000  1.0
  H  H121  1  0.88930000  0.96230000  0.28210000  1.0
  H  H122  1  0.92910000  0.00050000  0.09380000  1.0
  H  H123  1  0.81800000  0.99750000  0.03740000  1.0
  H  H124  1  0.70560000  0.02190000  0.98920000  1.0
  H  H125  1  0.60740000  0.05020000  0.13810000  1.0
  H  H126  1  0.56710000  0.94140000  0.18070000  1.0
  H  H127  1  0.58430000  0.02930000  0.69760000  1.0
  H  H128  1  0.48150000  0.00630000  0.63560000  1.0
  H  H129  1  0.62520000  0.98140000  0.42320000  1.0
  H  H130  1  0.73850000  0.00320000  0.47420000  1.0
  H  H131  1  0.83800000  0.04340000  0.32960000  1.0
  H  H132  1  0.54870000  0.28570000  0.18950000  1.0
  H  H133  1  0.40350000  0.31610000  0.31320000  1.0
  H  H134  1  0.50430000  0.32630000  0.37620000  1.0
  H  H135  1  0.60960000  0.31910000  0.43390000  1.0
  H  H136  1  0.72210000  0.33860000  0.48620000  1.0
  H  H137  1  0.82640000  0.37350000  0.34150000  1.0
  H  H138  1  0.86810000  0.28850000  0.29300000  1.0
  H  H139  1  0.52190000  0.19520000  0.67050000  1.0
  H  H140  1  0.42380000  0.17100000  0.60660000  1.0
  H  H141  1  0.81710000  0.32190000  0.04800000  1.0
  H  H142  1  0.70860000  0.34950000  0.99500000  1.0
  H  H143  1  0.59990000  0.38420000  0.13770000  1.0
  H  H144  1  0.35780000  0.89980000  0.41620000  1.0
  H  H145  1  0.33020000  0.08770000  0.43110000  1.0
  H  H146  1  0.89860000  0.62130000  0.27500000  1.0
  H  H147  1  0.04400000  0.65170000  0.15020000  1.0
  H  H148  1  0.94120000  0.67460000  0.09040000  1.0
  H  H149  1  0.83480000  0.65720000  0.03410000  1.0
  H  H150  1  0.72620000  0.68210000  0.98040000  1.0
  H  H151  1  0.61790000  0.71190000  0.12580000  1.0
  H  H152  1  0.56070000  0.61880000  0.17940000  1.0
  H  H153  1  0.42230000  0.64310000  0.31070000  1.0
  H  H154  1  0.52850000  0.65600000  0.36950000  1.0
  H  H155  1  0.63570000  0.65350000  0.42200000  1.0
  H  H156  1  0.75060000  0.67720000  0.46930000  1.0
  H  H157  1  0.84430000  0.71100000  0.32010000  1.0
  H  H158  1  0.46680000  0.48450000  0.34580000  1.0
  H  H159  1  0.61070000  0.46230000  0.21790000  1.0
  H  H160  1  0.57090000  0.50050000  0.40620000  1.0
  H  H161  1  0.68200000  0.49750000  0.46260000  1.0
  H  H162  1  0.79440000  0.52190000  0.51080000  1.0
  H  H163  1  0.89260000  0.55020000  0.36190000  1.0
  H  H164  1  0.93290000  0.44140000  0.31930000  1.0
  H  H165  1  0.91570000  0.52930000  0.80240000  1.0
  H  H166  1  0.01850000  0.50630000  0.86440000  1.0
  H  H167  1  0.87480000  0.48140000  0.07680000  1.0
  H  H168  1  0.76150000  0.50320000  0.02580000  1.0
  H  H169  1  0.66200000  0.54340000  0.17040000  1.0
  H  H170  1  0.95130000  0.78570000  0.31050000  1.0
  H  H171  1  0.09650000  0.81610000  0.18680000  1.0
  H  H172  1  0.99570000  0.82630000  0.12380000  1.0
  H  H173  1  0.89040000  0.81910000  0.06610000  1.0
  H  H174  1  0.77790000  0.83860000  0.01380000  1.0
  H  H175  1  0.67360000  0.87350000  0.15850000  1.0
  H  H176  1  0.63190000  0.78850000  0.20700000  1.0
  H  H177  1  0.97810000  0.69520000  0.82950000  1.0
  H  H178  1  0.07620000  0.67100000  0.89340000  1.0
  H  H179  1  0.68290000  0.82190000  0.45200000  1.0
  H  H180  1  0.79140000  0.84950000  0.50500000  1.0
  H  H181  1  0.90010000  0.88420000  0.36230000  1.0
  H  H182  1  0.14220000  0.39980000  0.08380000  1.0
  H  H183  1  0.16980000  0.58770000  0.06890000  1.0
  C  C184  1  0.55130000  0.87440000  0.76210000  1.0
  C  C185  1  0.48360000  0.86360000  0.72040000  1.0
  C  C186  1  0.40750000  0.86740000  0.73740000  1.0
  C  C187  1  0.49450000  0.84950000  0.66390000  1.0
  C  C188  1  0.43320000  0.83720000  0.62800000  1.0
  C  C189  1  0.35720000  0.84210000  0.64750000  1.0
  C  C190  1  0.28960000  0.82880000  0.61230000  1.0
  C  C191  1  0.29010000  0.83110000  0.55210000  1.0
  C  C192  1  0.22580000  0.81630000  0.52010000  1.0
  C  C193  1  0.16250000  0.79880000  0.60720000  1.0
  C  C194  1  0.15920000  0.79880000  0.54760000  1.0
  C  C195  1  0.59170000  0.72750000  0.01400000  1.0
  C  C196  1  0.91270000  0.88750000  0.69730000  1.0
  C  C197  1  0.97930000  0.87390000  0.73690000  1.0
  C  C198  1  0.05390000  0.87330000  0.71800000  1.0
  C  C199  1  0.97110000  0.85970000  0.79590000  1.0
  C  C200  1  0.03370000  0.85020000  0.83050000  1.0
  C  C201  1  0.10620000  0.84970000  0.80700000  1.0
  C  C202  1  0.17780000  0.83440000  0.84060000  1.0
  C  C203  1  0.17920000  0.83610000  0.90200000  1.0
  C  C204  1  0.24750000  0.82170000  0.92960000  1.0
  C  C205  1  0.30260000  0.80290000  0.84060000  1.0
  C  C206  1  0.31210000  0.80550000  0.90010000  1.0
  C  C207  1  0.38910000  0.79350000  0.92960000  1.0
  C  C208  1  0.96120000  0.03700000  0.73120000  1.0
  C  C209  1  0.02750000  0.02940000  0.77430000  1.0
  C  C210  1  0.01630000  0.01690000  0.83200000  1.0
  C  C211  1  0.10260000  0.03030000  0.75630000  1.0
  C  C212  1  0.07800000  0.00680000  0.86760000  1.0
  C  C213  1  0.15190000  0.00740000  0.84690000  1.0
  C  C214  1  0.22320000  0.99220000  0.88240000  1.0
  C  C215  1  0.22560000  0.99210000  0.94270000  1.0
  C  C216  1  0.29170000  0.97670000  0.97100000  1.0
  C  C217  1  0.34940000  0.96070000  0.88220000  1.0
  C  C218  1  0.35540000  0.95910000  0.94160000  1.0
  C  C219  1  0.42630000  0.93250000  0.97110000  1.0
  C  C220  1  0.41790000  0.93260000  0.19240000  1.0
  C  C221  1  0.47990000  0.95140000  0.23410000  1.0
  C  C222  1  0.44310000  0.04800000  0.78180000  1.0
  C  C223  1  0.46580000  0.96890000  0.28990000  1.0
  C  C224  1  0.52740000  0.98370000  0.32650000  1.0
  C  C225  1  0.39990000  0.01630000  0.69200000  1.0
  C  C226  1  0.33210000  0.00230000  0.65580000  1.0
  C  C227  1  0.33080000  0.00690000  0.59570000  1.0
  C  C228  1  0.26350000  0.99360000  0.56540000  1.0
  C  C229  1  0.20550000  0.97020000  0.65180000  1.0
  C  C230  1  0.20080000  0.97600000  0.59310000  1.0
  C  C231  1  0.87660000  0.03410000  0.43900000  1.0
  C  C232  1  0.59900000  0.70650000  0.80070000  1.0
  C  C233  1  0.53540000  0.70000000  0.75550000  1.0
  C  C234  1  0.45980000  0.70430000  0.77260000  1.0
  C  C235  1  0.54660000  0.68740000  0.69960000  1.0
  C  C236  1  0.48690000  0.67990000  0.66240000  1.0
  C  C237  1  0.41390000  0.68140000  0.68060000  1.0
  C  C238  1  0.34470000  0.66920000  0.64500000  1.0
  C  C239  1  0.34530000  0.67120000  0.58460000  1.0
  C  C240  1  0.27850000  0.65880000  0.55350000  1.0
  C  C241  1  0.21750000  0.63910000  0.63990000  1.0
  C  C242  1  0.21320000  0.64280000  0.58070000  1.0
  C  C243  1  0.63780000  0.86600000  0.04960000  1.0
  C  C244  1  0.48160000  0.78550000  0.21380000  1.0
  C  C245  1  0.54410000  0.79590000  0.25990000  1.0
  C  C246  1  0.12060000  0.70280000  0.74470000  1.0
  C  C247  1  0.52840000  0.80700000  0.31740000  1.0
  C  C248  1  0.58650000  0.82100000  0.35530000  1.0
  C  C249  1  0.16320000  0.67680000  0.83670000  1.0
  C  C250  1  0.22850000  0.66080000  0.87350000  1.0
  C  C251  1  0.22700000  0.66470000  0.93410000  1.0
  C  C252  1  0.29160000  0.64820000  0.96530000  1.0
  C  C253  1  0.35560000  0.62780000  0.88040000  1.0
  C  C254  1  0.35760000  0.62840000  0.93920000  1.0
  C  C255  1  0.92560000  0.89750000  0.47290000  1.0
  C  C256  1  0.74430000  0.01240000  0.61560000  1.0
  C  C257  1  0.66860000  0.00720000  0.58370000  1.0
  C  C258  1  0.62570000  0.06090000  0.57000000  1.0
  C  C259  1  0.53490000  0.00210000  0.51680000  1.0
  C  C260  1  0.42850000  0.04770000  0.46960000  1.0
  C  C261  1  0.64280000  0.95000000  0.56260000  1.0
  C  C262  1  0.94870000  0.37440000  0.73790000  1.0
  C  C263  1  0.01640000  0.36360000  0.77960000  1.0
  C  C264  1  0.09250000  0.36740000  0.76260000  1.0
  C  C265  1  0.00550000  0.34950000  0.83610000  1.0
  C  C266  1  0.06680000  0.33720000  0.87200000  1.0
  C  C267  1  0.14280000  0.34210000  0.85250000  1.0
  C  C268  1  0.21040000  0.32880000  0.88770000  1.0
  C  C269  1  0.20990000  0.33110000  0.94790000  1.0
  C  C270  1  0.27420000  0.31630000  0.97990000  1.0
  C  C271  1  0.33750000  0.29880000  0.89280000  1.0
  C  C272  1  0.34080000  0.29880000  0.95240000  1.0
  C  C273  1  0.90830000  0.22750000  0.48600000  1.0
  C  C274  1  0.58730000  0.38750000  0.80270000  1.0
  C  C275  1  0.52070000  0.37390000  0.76310000  1.0
  C  C276  1  0.44610000  0.37330000  0.78200000  1.0
  C  C277  1  0.52890000  0.35970000  0.70410000  1.0
  C  C278  1  0.46630000  0.35020000  0.66950000  1.0
  C  C279  1  0.39380000  0.34970000  0.69300000  1.0
  C  C280  1  0.32220000  0.33440000  0.65940000  1.0
  C  C281  1  0.32080000  0.33610000  0.59800000  1.0
  C  C282  1  0.25250000  0.32170000  0.57040000  1.0
  C  C283  1  0.19740000  0.30290000  0.65940000  1.0
  C  C284  1  0.18790000  0.30550000  0.59990000  1.0
  C  C285  1  0.11090000  0.29350000  0.57040000  1.0
  C  C286  1  0.53880000  0.53700000  0.76880000  1.0
  C  C287  1  0.47250000  0.52940000  0.72570000  1.0
  C  C288  1  0.48370000  0.51690000  0.66800000  1.0
  C  C289  1  0.39740000  0.53030000  0.74370000  1.0
  C  C290  1  0.42200000  0.50680000  0.63240000  1.0
  C  C291  1  0.34810000  0.50740000  0.65310000  1.0
  C  C292  1  0.27680000  0.49220000  0.61760000  1.0
  C  C293  1  0.27440000  0.49210000  0.55730000  1.0
  C  C294  1  0.20830000  0.47670000  0.52900000  1.0
  C  C295  1  0.15060000  0.46070000  0.61780000  1.0
  C  C296  1  0.14460000  0.45910000  0.55840000  1.0
  C  C297  1  0.07370000  0.43250000  0.52890000  1.0
  C  C298  1  0.08210000  0.43260000  0.30760000  1.0
  C  C299  1  0.02010000  0.45140000  0.26590000  1.0
  C  C300  1  0.05690000  0.54800000  0.71820000  1.0
  C  C301  1  0.03420000  0.46890000  0.21010000  1.0
  C  C302  1  0.97260000  0.48370000  0.17350000  1.0
  C  C303  1  0.10010000  0.51630000  0.80800000  1.0
  C  C304  1  0.16790000  0.50230000  0.84420000  1.0
  C  C305  1  0.16920000  0.50690000  0.90430000  1.0
  C  C306  1  0.23650000  0.49360000  0.93460000  1.0
  C  C307  1  0.29450000  0.47020000  0.84820000  1.0
  C  C308  1  0.29920000  0.47600000  0.90690000  1.0
  C  C309  1  0.62340000  0.53410000  0.06100000  1.0
  C  C310  1  0.90100000  0.20650000  0.69930000  1.0
  C  C311  1  0.96460000  0.20000000  0.74450000  1.0
  C  C312  1  0.04020000  0.20430000  0.72740000  1.0
  C  C313  1  0.95340000  0.18740000  0.80040000  1.0
  C  C314  1  0.01310000  0.17990000  0.83760000  1.0
  C  C315  1  0.08610000  0.18140000  0.81940000  1.0
  C  C316  1  0.15530000  0.16920000  0.85500000  1.0
  C  C317  1  0.15470000  0.17120000  0.91540000  1.0
  C  C318  1  0.22150000  0.15880000  0.94650000  1.0
  C  C319  1  0.28250000  0.13910000  0.86010000  1.0
  C  C320  1  0.28680000  0.14280000  0.91930000  1.0
  C  C321  1  0.86220000  0.36600000  0.45040000  1.0
  C  C322  1  0.01840000  0.28550000  0.28620000  1.0
  C  C323  1  0.95590000  0.29590000  0.24010000  1.0
  C  C324  1  0.37940000  0.20280000  0.75530000  1.0
  C  C325  1  0.97160000  0.30700000  0.18260000  1.0
  C  C326  1  0.91350000  0.32100000  0.14470000  1.0
  C  C327  1  0.33680000  0.17680000  0.66330000  1.0
  C  C328  1  0.27150000  0.16080000  0.62650000  1.0
  C  C329  1  0.27300000  0.16470000  0.56590000  1.0
  C  C330  1  0.20840000  0.14820000  0.53470000  1.0
  C  C331  1  0.14440000  0.12780000  0.61960000  1.0
  C  C332  1  0.14240000  0.12840000  0.56080000  1.0
  C  C333  1  0.57440000  0.39750000  0.02710000  1.0
  C  C334  1  0.75570000  0.51240000  0.88440000  1.0
  C  C335  1  0.83140000  0.50720000  0.91630000  1.0
  C  C336  1  0.87430000  0.56090000  0.93000000  1.0
  C  C337  1  0.96510000  0.50210000  0.98320000  1.0
  C  C338  1  0.07150000  0.54770000  0.03040000  1.0
  C  C339  1  0.85720000  0.45000000  0.93740000  1.0
  C  C340  1  0.44870000  0.12560000  0.23790000  1.0
  C  C341  1  0.51640000  0.13640000  0.27960000  1.0
  C  C342  1  0.59250000  0.13260000  0.26260000  1.0
  C  C343  1  0.50550000  0.15050000  0.33610000  1.0
  C  C344  1  0.56680000  0.16280000  0.37200000  1.0
  C  C345  1  0.64280000  0.15790000  0.35250000  1.0
  C  C346  1  0.71040000  0.17120000  0.38770000  1.0
  C  C347  1  0.70990000  0.16890000  0.44790000  1.0
  C  C348  1  0.77420000  0.18370000  0.47990000  1.0
  C  C349  1  0.83750000  0.20120000  0.39280000  1.0
  C  C350  1  0.84080000  0.20120000  0.45240000  1.0
  C  C351  1  0.40830000  0.27250000  0.98600000  1.0
  C  C352  1  0.08730000  0.11250000  0.30270000  1.0
  C  C353  1  0.02070000  0.12610000  0.26310000  1.0
  C  C354  1  0.94610000  0.12670000  0.28200000  1.0
  C  C355  1  0.02890000  0.14030000  0.20410000  1.0
  C  C356  1  0.96630000  0.14980000  0.16950000  1.0
  C  C357  1  0.89380000  0.15030000  0.19300000  1.0
  C  C358  1  0.82220000  0.16560000  0.15940000  1.0
  C  C359  1  0.82080000  0.16390000  0.09800000  1.0
  C  C360  1  0.75250000  0.17830000  0.07040000  1.0
  C  C361  1  0.69740000  0.19710000  0.15940000  1.0
  C  C362  1  0.68790000  0.19450000  0.09990000  1.0
  C  C363  1  0.61090000  0.20650000  0.07040000  1.0
  C  C364  1  0.03880000  0.96300000  0.26880000  1.0
  C  C365  1  0.97250000  0.97060000  0.22570000  1.0
  C  C366  1  0.98370000  0.98310000  0.16800000  1.0
  C  C367  1  0.89740000  0.96970000  0.24370000  1.0
  C  C368  1  0.92200000  0.99320000  0.13240000  1.0
  C  C369  1  0.84810000  0.99260000  0.15310000  1.0
  C  C370  1  0.77680000  0.00780000  0.11760000  1.0
  C  C371  1  0.77440000  0.00790000  0.05730000  1.0
  C  C372  1  0.70830000  0.02330000  0.02900000  1.0
  C  C373  1  0.65060000  0.03930000  0.11780000  1.0
  C  C374  1  0.64460000  0.04090000  0.05840000  1.0
  C  C375  1  0.57370000  0.06750000  0.02890000  1.0
  C  C376  1  0.58210000  0.06740000  0.80760000  1.0
  C  C377  1  0.52010000  0.04860000  0.76590000  1.0
  C  C378  1  0.55690000  0.95200000  0.21820000  1.0
  C  C379  1  0.53420000  0.03110000  0.71010000  1.0
  C  C380  1  0.47260000  0.01630000  0.67350000  1.0
  C  C381  1  0.60010000  0.98370000  0.30800000  1.0
  C  C382  1  0.66790000  0.99770000  0.34420000  1.0
  C  C383  1  0.66920000  0.99310000  0.40430000  1.0
  C  C384  1  0.73650000  0.00640000  0.43460000  1.0
  C  C385  1  0.79450000  0.02980000  0.34820000  1.0
  C  C386  1  0.79920000  0.02400000  0.40690000  1.0
  C  C387  1  0.12340000  0.96590000  0.56100000  1.0
  C  C388  1  0.40100000  0.29350000  0.19930000  1.0
  C  C389  1  0.46460000  0.30000000  0.24450000  1.0
  C  C390  1  0.54020000  0.29570000  0.22740000  1.0
  C  C391  1  0.45340000  0.31260000  0.30040000  1.0
  C  C392  1  0.51310000  0.32010000  0.33760000  1.0
  C  C393  1  0.58610000  0.31860000  0.31940000  1.0
  C  C394  1  0.65530000  0.33080000  0.35500000  1.0
  C  C395  1  0.65470000  0.32880000  0.41540000  1.0
  C  C396  1  0.72150000  0.34120000  0.44650000  1.0
  C  C397  1  0.78250000  0.36090000  0.36010000  1.0
  C  C398  1  0.78680000  0.35720000  0.41930000  1.0
  C  C399  1  0.36220000  0.13400000  0.95040000  1.0
  C  C400  1  0.51840000  0.21450000  0.78620000  1.0
  C  C401  1  0.45590000  0.20410000  0.74010000  1.0
  C  C402  1  0.87940000  0.29720000  0.25530000  1.0
  C  C403  1  0.47160000  0.19300000  0.68260000  1.0
  C  C404  1  0.41350000  0.17900000  0.64470000  1.0
  C  C405  1  0.83680000  0.32320000  0.16330000  1.0
  C  C406  1  0.77150000  0.33920000  0.12650000  1.0
  C  C407  1  0.77300000  0.33530000  0.06590000  1.0
  C  C408  1  0.70840000  0.35180000  0.03470000  1.0
  C  C409  1  0.64440000  0.37220000  0.11960000  1.0
  C  C410  1  0.64240000  0.37160000  0.06080000  1.0
  C  C411  1  0.07440000  0.10250000  0.52710000  1.0
  C  C412  1  0.25570000  0.98760000  0.38440000  1.0
  C  C413  1  0.33140000  0.99280000  0.41630000  1.0
  C  C414  1  0.37430000  0.93910000  0.43000000  1.0
  C  C415  1  0.46510000  0.99790000  0.48320000  1.0
  C  C416  1  0.57150000  0.95230000  0.53040000  1.0
  C  C417  1  0.35720000  0.05000000  0.43740000  1.0
  C  C418  1  0.05130000  0.62560000  0.26210000  1.0
  C  C419  1  0.98360000  0.63640000  0.22040000  1.0
  C  C420  1  0.90750000  0.63260000  0.23740000  1.0
  C  C421  1  0.99450000  0.65050000  0.16390000  1.0
  C  C422  1  0.93320000  0.66280000  0.12800000  1.0
  C  C423  1  0.85720000  0.65790000  0.14750000  1.0
  C  C424  1  0.78960000  0.67120000  0.11230000  1.0
  C  C425  1  0.79010000  0.66890000  0.05210000  1.0
  C  C426  1  0.72580000  0.68370000  0.02010000  1.0
  C  C427  1  0.66250000  0.70120000  0.10720000  1.0
  C  C428  1  0.65920000  0.70120000  0.04760000  1.0
  C  C429  1  0.09170000  0.77250000  0.51400000  1.0
  C  C430  1  0.41270000  0.61250000  0.19730000  1.0
  C  C431  1  0.47930000  0.62610000  0.23690000  1.0
  C  C432  1  0.55390000  0.62670000  0.21800000  1.0
  C  C433  1  0.47110000  0.64030000  0.29590000  1.0
  C  C434  1  0.53370000  0.64980000  0.33050000  1.0
  C  C435  1  0.60620000  0.65030000  0.30700000  1.0
  C  C436  1  0.67780000  0.66560000  0.34060000  1.0
  C  C437  1  0.67920000  0.66390000  0.40200000  1.0
  C  C438  1  0.74750000  0.67830000  0.42960000  1.0
  C  C439  1  0.80260000  0.69710000  0.34060000  1.0
  C  C440  1  0.81210000  0.69450000  0.40010000  1.0
  C  C441  1  0.88910000  0.70650000  0.42960000  1.0
  C  C442  1  0.46120000  0.46300000  0.23120000  1.0
  C  C443  1  0.52750000  0.47060000  0.27430000  1.0
  C  C444  1  0.51630000  0.48310000  0.33200000  1.0
  C  C445  1  0.60260000  0.46970000  0.25630000  1.0
  C  C446  1  0.57800000  0.49320000  0.36760000  1.0
  C  C447  1  0.65190000  0.49260000  0.34690000  1.0
  C  C448  1  0.72320000  0.50780000  0.38240000  1.0
  C  C449  1  0.72560000  0.50790000  0.44270000  1.0
  C  C450  1  0.79170000  0.52330000  0.47100000  1.0
  C  C451  1  0.84940000  0.53930000  0.38220000  1.0
  C  C452  1  0.85540000  0.54090000  0.44160000  1.0
  C  C453  1  0.92630000  0.56750000  0.47110000  1.0
  C  C454  1  0.91790000  0.56740000  0.69240000  1.0
  C  C455  1  0.97990000  0.54860000  0.73410000  1.0
  C  C456  1  0.94310000  0.45200000  0.28180000  1.0
  C  C457  1  0.96580000  0.53110000  0.78990000  1.0
  C  C458  1  0.02740000  0.51630000  0.82650000  1.0
  C  C459  1  0.89990000  0.48370000  0.19200000  1.0
  C  C460  1  0.83210000  0.49770000  0.15580000  1.0
  C  C461  1  0.83080000  0.49310000  0.09570000  1.0
  C  C462  1  0.76350000  0.50640000  0.06540000  1.0
  C  C463  1  0.70550000  0.52980000  0.15180000  1.0
  C  C464  1  0.70080000  0.52400000  0.09310000  1.0
  C  C465  1  0.37660000  0.46590000  0.93900000  1.0
  C  C466  1  0.09900000  0.79350000  0.30070000  1.0
  C  C467  1  0.03540000  0.80000000  0.25550000  1.0
  C  C468  1  0.95980000  0.79570000  0.27260000  1.0
  C  C469  1  0.04660000  0.81260000  0.19960000  1.0
  C  C470  1  0.98690000  0.82010000  0.16240000  1.0
  C  C471  1  0.91390000  0.81860000  0.18060000  1.0
  C  C472  1  0.84470000  0.83080000  0.14500000  1.0
  C  C473  1  0.84530000  0.82880000  0.08460000  1.0
  C  C474  1  0.77850000  0.84120000  0.05350000  1.0
  C  C475  1  0.71750000  0.86090000  0.13990000  1.0
  C  C476  1  0.71320000  0.85720000  0.08070000  1.0
  C  C477  1  0.13780000  0.63400000  0.54960000  1.0
  C  C478  1  0.98160000  0.71450000  0.71380000  1.0
  C  C479  1  0.04410000  0.70410000  0.75990000  1.0
  C  C480  1  0.62060000  0.79720000  0.24470000  1.0
  C  C481  1  0.02840000  0.69300000  0.81740000  1.0
  C  C482  1  0.08650000  0.67900000  0.85530000  1.0
  C  C483  1  0.66320000  0.82320000  0.33670000  1.0
  C  C484  1  0.72850000  0.83920000  0.37350000  1.0
  C  C485  1  0.72700000  0.83530000  0.43410000  1.0
  C  C486  1  0.79160000  0.85180000  0.46530000  1.0
  C  C487  1  0.85560000  0.87220000  0.38040000  1.0
  C  C488  1  0.85760000  0.87160000  0.43920000  1.0
  C  C489  1  0.42560000  0.60250000  0.97290000  1.0
  C  C490  1  0.24430000  0.48760000  0.11560000  1.0
  C  C491  1  0.16860000  0.49280000  0.08370000  1.0
  C  C492  1  0.12570000  0.43910000  0.07000000  1.0
  C  C493  1  0.03490000  0.49790000  0.01680000  1.0
  C  C494  1  0.92850000  0.45230000  0.96960000  1.0
  C  C495  1  0.14280000  0.55000000  0.06260000  1.0
  N  N496  1  0.34710000  0.85580000  0.70250000  1.0
  N  N497  1  0.22480000  0.81320000  0.63970000  1.0
  N  N498  1  0.11660000  0.86210000  0.75070000  1.0
  N  N499  1  0.23940000  0.81870000  0.81120000  1.0
  N  N500  1  0.16490000  0.02090000  0.79160000  1.0
  N  N501  1  0.28520000  0.97690000  0.85220000  1.0
  N  N502  1  0.38360000  0.03330000  0.74700000  1.0
  N  N503  1  0.26910000  0.98320000  0.68340000  1.0
  N  N504  1  0.39900000  0.69480000  0.73780000  1.0
  N  N505  1  0.28100000  0.65260000  0.67230000  1.0
  N  N506  1  0.17930000  0.68950000  0.78190000  1.0
  N  N507  1  0.29380000  0.64340000  0.84740000  1.0
  N  N508  1  0.55980000  0.05730000  0.53660000  1.0
  N  N509  1  0.15290000  0.35580000  0.79750000  1.0
  N  N510  1  0.27520000  0.31320000  0.86030000  1.0
  N  N511  1  0.38340000  0.36210000  0.74930000  1.0
  N  N512  1  0.26060000  0.31870000  0.68880000  1.0
  N  N513  1  0.33510000  0.52090000  0.70840000  1.0
  N  N514  1  0.21480000  0.47690000  0.64780000  1.0
  N  N515  1  0.11640000  0.53330000  0.75300000  1.0
  N  N516  1  0.23090000  0.48320000  0.81660000  1.0
  N  N517  1  0.10100000  0.19480000  0.76220000  1.0
  N  N518  1  0.21900000  0.15260000  0.82770000  1.0
  N  N519  1  0.32070000  0.18950000  0.71810000  1.0
  N  N520  1  0.20620000  0.14340000  0.65260000  1.0
  N  N521  1  0.94020000  0.55730000  0.96340000  1.0
  N  N522  1  0.65290000  0.14420000  0.29750000  1.0
  N  N523  1  0.77520000  0.18680000  0.36030000  1.0
  N  N524  1  0.88340000  0.13790000  0.24930000  1.0
  N  N525  1  0.76060000  0.18130000  0.18880000  1.0
  N  N526  1  0.83510000  0.97910000  0.20840000  1.0
  N  N527  1  0.71480000  0.02310000  0.14780000  1.0
  N  N528  1  0.61640000  0.96670000  0.25300000  1.0
  N  N529  1  0.73090000  0.01680000  0.31660000  1.0
  N  N530  1  0.60100000  0.30520000  0.26220000  1.0
  N  N531  1  0.71900000  0.34740000  0.32770000  1.0
  N  N532  1  0.82070000  0.31050000  0.21810000  1.0
  N  N533  1  0.70620000  0.35660000  0.15260000  1.0
  N  N534  1  0.44020000  0.94270000  0.46340000  1.0
  N  N535  1  0.84710000  0.64420000  0.20250000  1.0
  N  N536  1  0.72480000  0.68680000  0.13970000  1.0
  N  N537  1  0.61660000  0.63790000  0.25070000  1.0
  N  N538  1  0.73940000  0.68130000  0.31120000  1.0
  N  N539  1  0.66490000  0.47910000  0.29160000  1.0
  N  N540  1  0.78520000  0.52310000  0.35220000  1.0
  N  N541  1  0.88360000  0.46670000  0.24700000  1.0
  N  N542  1  0.76910000  0.51680000  0.18340000  1.0
  N  N543  1  0.89900000  0.80520000  0.23780000  1.0
  N  N544  1  0.78100000  0.84740000  0.17230000  1.0
  N  N545  1  0.67930000  0.81050000  0.28190000  1.0
  N  N546  1  0.79380000  0.85660000  0.34740000  1.0
  N  N547  1  0.05980000  0.44270000  0.03660000  1.0
  Cl  Cl548  1  0.47620000  0.22100000  0.50180000  1.0
  Cl  Cl549  1  0.02380000  0.72100000  0.99820000  1.0
  Cl  Cl550  1  0.52380000  0.77900000  0.49820000  1.0
  Cl  Cl551  1  0.97620000  0.27900000  0.00180000  1.0
  O  O552  1  0.58410000  0.71600000  0.53020000  1.0
  O  O553  1  0.61530000  0.88130000  0.74380000  1.0
  O  O554  1  0.53390000  0.87620000  0.81470000  1.0
  O  O555  1  0.59530000  0.73160000  0.96130000  1.0
  O  O556  1  0.53690000  0.74770000  0.04310000  1.0
  O  O557  1  0.92670000  0.90640000  0.64970000  1.0
  O  O558  1  0.84530000  0.87860000  0.71630000  1.0
  O  O559  1  0.44470000  0.78450000  0.89780000  1.0
  O  O560  1  0.39150000  0.79890000  0.98240000  1.0
  O  O561  1  0.97780000  0.03840000  0.68010000  1.0
  O  O562  1  0.89510000  0.04000000  0.74960000  1.0
  O  O563  1  0.42740000  0.92910000  0.02340000  1.0
  O  O564  1  0.47940000  0.91240000  0.93970000  1.0
  O  O565  1  0.43590000  0.91240000  0.14470000  1.0
  O  O566  1  0.64910000  0.06310000  0.79300000  1.0
  O  O567  1  0.87750000  0.02580000  0.49130000  1.0
  O  O568  1  0.06590000  0.95380000  0.59140000  1.0
  O  O569  1  0.59280000  0.74470000  0.83990000  1.0
  O  O570  1  0.84320000  0.16880000  0.70360000  1.0
  O  O571  1  0.63680000  0.86020000  0.99710000  1.0
  O  O572  1  0.57850000  0.87630000  0.07870000  1.0
  O  O573  1  0.50480000  0.78270000  0.16400000  1.0
  O  O574  1  0.41460000  0.78190000  0.22740000  1.0
  O  O575  1  0.92120000  0.89850000  0.52630000  1.0
  O  O576  1  0.02060000  0.08020000  0.55430000  1.0
  O  O577  1  0.74800000  0.05210000  0.65690000  1.0
  O  O578  1  0.79840000  0.98000000  0.59730000  1.0
  O  O579  1  0.91590000  0.21600000  0.96980000  1.0
  O  O580  1  0.88470000  0.38130000  0.75620000  1.0
  O  O581  1  0.96610000  0.37620000  0.68530000  1.0
  O  O582  1  0.90470000  0.23160000  0.53870000  1.0
  O  O583  1  0.96310000  0.24770000  0.45690000  1.0
  O  O584  1  0.57330000  0.40640000  0.85030000  1.0
  O  O585  1  0.65470000  0.37860000  0.78370000  1.0
  O  O586  1  0.05530000  0.28450000  0.60220000  1.0
  O  O587  1  0.10850000  0.29890000  0.51760000  1.0
  O  O588  1  0.52220000  0.53840000  0.81990000  1.0
  O  O589  1  0.60490000  0.54000000  0.75040000  1.0
  O  O590  1  0.07260000  0.42910000  0.47660000  1.0
  O  O591  1  0.02060000  0.41240000  0.56030000  1.0
  O  O592  1  0.06410000  0.41240000  0.35530000  1.0
  O  O593  1  0.85090000  0.56310000  0.70700000  1.0
  O  O594  1  0.62250000  0.52580000  0.00870000  1.0
  O  O595  1  0.43410000  0.45380000  0.90860000  1.0
  O  O596  1  0.90720000  0.24470000  0.66010000  1.0
  O  O597  1  0.65680000  0.66880000  0.79640000  1.0
  O  O598  1  0.86320000  0.36020000  0.50290000  1.0
  O  O599  1  0.92150000  0.37630000  0.42130000  1.0
  O  O600  1  0.99520000  0.28270000  0.33600000  1.0
  O  O601  1  0.08540000  0.28190000  0.27260000  1.0
  O  O602  1  0.57880000  0.39850000  0.97370000  1.0
  O  O603  1  0.47940000  0.58020000  0.94570000  1.0
  O  O604  1  0.75200000  0.55210000  0.84310000  1.0
  O  O605  1  0.70160000  0.48000000  0.90270000  1.0
  O  O606  1  0.41590000  0.28400000  0.46980000  1.0
  O  O607  1  0.38470000  0.11870000  0.25620000  1.0
  O  O608  1  0.46610000  0.12380000  0.18530000  1.0
  O  O609  1  0.40470000  0.26840000  0.03870000  1.0
  O  O610  1  0.46310000  0.25230000  0.95690000  1.0
  O  O611  1  0.07330000  0.09360000  0.35030000  1.0
  O  O612  1  0.15470000  0.12140000  0.28370000  1.0
  O  O613  1  0.55530000  0.21550000  0.10220000  1.0
  O  O614  1  0.60850000  0.20110000  0.01760000  1.0
  O  O615  1  0.02220000  0.96160000  0.31990000  1.0
  O  O616  1  0.10490000  0.96000000  0.25040000  1.0
  O  O617  1  0.57260000  0.07090000  0.97660000  1.0
  O  O618  1  0.52060000  0.08760000  0.06030000  1.0
  O  O619  1  0.56410000  0.08760000  0.85530000  1.0
  O  O620  1  0.35090000  0.93690000  0.20700000  1.0
  O  O621  1  0.12250000  0.97420000  0.50870000  1.0
  O  O622  1  0.93410000  0.04620000  0.40860000  1.0
  O  O623  1  0.40720000  0.25530000  0.16010000  1.0
  O  O624  1  0.15680000  0.83120000  0.29640000  1.0
  O  O625  1  0.36320000  0.13980000  0.00290000  1.0
  O  O626  1  0.42150000  0.12370000  0.92130000  1.0
  O  O627  1  0.49520000  0.21730000  0.83600000  1.0
  O  O628  1  0.58540000  0.21810000  0.77260000  1.0
  O  O629  1  0.07880000  0.10150000  0.47370000  1.0
  O  O630  1  0.97940000  0.91980000  0.44570000  1.0
  O  O631  1  0.25200000  0.94790000  0.34310000  1.0
  O  O632  1  0.20160000  0.02000000  0.40270000  1.0
  O  O633  1  0.08410000  0.78400000  0.03020000  1.0
  O  O634  1  0.11530000  0.61870000  0.24380000  1.0
  O  O635  1  0.03390000  0.62380000  0.31470000  1.0
  O  O636  1  0.09530000  0.76840000  0.46130000  1.0
  O  O637  1  0.03690000  0.75230000  0.54310000  1.0
  O  O638  1  0.42670000  0.59360000  0.14970000  1.0
  O  O639  1  0.34530000  0.62140000  0.21630000  1.0
  O  O640  1  0.94470000  0.71550000  0.39780000  1.0
  O  O641  1  0.89150000  0.70110000  0.48240000  1.0
  O  O642  1  0.47780000  0.46160000  0.18010000  1.0
  O  O643  1  0.39510000  0.46000000  0.24960000  1.0
  O  O644  1  0.92740000  0.57090000  0.52340000  1.0
  O  O645  1  0.97940000  0.58760000  0.43970000  1.0
  O  O646  1  0.93590000  0.58760000  0.64470000  1.0
  O  O647  1  0.14910000  0.43690000  0.29300000  1.0
  O  O648  1  0.37750000  0.47420000  0.99130000  1.0
  O  O649  1  0.56590000  0.54620000  0.09140000  1.0
  O  O650  1  0.09280000  0.75530000  0.33990000  1.0
  O  O651  1  0.34320000  0.33120000  0.20360000  1.0
  O  O652  1  0.13680000  0.63980000  0.49710000  1.0
  O  O653  1  0.07850000  0.62370000  0.57870000  1.0
  O  O654  1  0.00480000  0.71730000  0.66400000  1.0
  O  O655  1  0.91460000  0.71810000  0.72740000  1.0
  O  O656  1  0.42120000  0.60150000  0.02630000  1.0
  O  O657  1  0.52060000  0.41980000  0.05430000  1.0
  O  O658  1  0.24800000  0.44790000  0.15690000  1.0
  O  O659  1  0.29840000  0.52000000  0.09730000  1.0
