# generated using pymatgen
data_U3H10(C6O7)2
_symmetry_space_group_name_H-M   'P 1'
_cell_length_a   8.23310000
_cell_length_b   10.86510000
_cell_length_c   28.55820000
_cell_angle_alpha   90.00000000
_cell_angle_beta   90.00000000
_cell_angle_gamma   90.00000000
_symmetry_Int_Tables_number   1
_chemical_formula_structural   U3H10(C6O7)2
_chemical_formula_sum   'U12 H40 C48 O56'
_cell_volume   2554.62965315
_cell_formula_units_Z   4
loop_
 _symmetry_equiv_pos_site_id
 _symmetry_equiv_pos_as_xyz
  1  'x, y, z'
loop_
 _atom_site_type_symbol
 _atom_site_label
 _atom_site_symmetry_multiplicity
 _atom_site_fract_x
 _atom_site_fract_y
 _atom_site_fract_z
 _atom_site_occupancy
  U  U0  1  0.64761000  0.66651000  0.92779000  1.0
  U  U1  1  0.39659000  0.16786000  0.92975000  1.0
  U  U2  1  0.28146000  0.55706000  0.75086000  1.0
  U  U3  1  0.85239000  0.33349000  0.42779000  1.0
  U  U4  1  0.10341000  0.83214000  0.42975000  1.0
  U  U5  1  0.21854000  0.44294000  0.25086000  1.0
  U  U6  1  0.35239000  0.16651000  0.57221000  1.0
  U  U7  1  0.60341000  0.66786000  0.57025000  1.0
  U  U8  1  0.71854000  0.05706000  0.74914000  1.0
  U  U9  1  0.14761000  0.83349000  0.07221000  1.0
  U  U10  1  0.89659000  0.33214000  0.07025000  1.0
  U  U11  1  0.78146000  0.94294000  0.24914000  1.0
  H  H12  1  0.33400000  0.78660000  0.96180000  1.0
  H  H13  1  0.70690000  0.25210000  0.96350000  1.0
  H  H14  1  0.09340000  0.87750000  0.91830000  1.0
  H  H15  1  0.04820000  0.81400000  0.87050000  1.0
  H  H16  1  0.20240000  0.55360000  0.93740000  1.0
  H  H17  1  0.05780000  0.59190000  0.90490000  1.0
  H  H18  1  0.95370000  0.36710000  0.91290000  1.0
  H  H19  1  0.98420000  0.30350000  0.86450000  1.0
  H  H20  1  0.98680000  0.09420000  0.90190000  1.0
  H  H21  1  0.84000000  0.05510000  0.93340000  1.0
  H  H22  1  0.16600000  0.21340000  0.46180000  1.0
  H  H23  1  0.79310000  0.74790000  0.46350000  1.0
  H  H24  1  0.40660000  0.12250000  0.41830000  1.0
  H  H25  1  0.45180000  0.18600000  0.37050000  1.0
  H  H26  1  0.29760000  0.44640000  0.43740000  1.0
  H  H27  1  0.44220000  0.40810000  0.40490000  1.0
  H  H28  1  0.54630000  0.63290000  0.41290000  1.0
  H  H29  1  0.51580000  0.69650000  0.36450000  1.0
  H  H30  1  0.51320000  0.90580000  0.40190000  1.0
  H  H31  1  0.66000000  0.94490000  0.43340000  1.0
  H  H32  1  0.66600000  0.28660000  0.53820000  1.0
  H  H33  1  0.29310000  0.75210000  0.53650000  1.0
  H  H34  1  0.90660000  0.37750000  0.58170000  1.0
  H  H35  1  0.95180000  0.31400000  0.62950000  1.0
  H  H36  1  0.79760000  0.05360000  0.56260000  1.0
  H  H37  1  0.94220000  0.09190000  0.59510000  1.0
  H  H38  1  0.04630000  0.86710000  0.58710000  1.0
  H  H39  1  0.01580000  0.80350000  0.63550000  1.0
  H  H40  1  0.01320000  0.59420000  0.59810000  1.0
  H  H41  1  0.16000000  0.55510000  0.56660000  1.0
  H  H42  1  0.83400000  0.71340000  0.03820000  1.0
  H  H43  1  0.20690000  0.24790000  0.03650000  1.0
  H  H44  1  0.59340000  0.62250000  0.08170000  1.0
  H  H45  1  0.54820000  0.68600000  0.12950000  1.0
  H  H46  1  0.70240000  0.94640000  0.06260000  1.0
  H  H47  1  0.55780000  0.90810000  0.09510000  1.0
  H  H48  1  0.45370000  0.13290000  0.08710000  1.0
  H  H49  1  0.48420000  0.19650000  0.13550000  1.0
  H  H50  1  0.48680000  0.40580000  0.09810000  1.0
  H  H51  1  0.34000000  0.44490000  0.06660000  1.0
  C  C52  1  0.24400000  0.72220000  0.90460000  1.0
  C  C53  1  0.31940000  0.65930000  0.86120000  1.0
  C  C54  1  0.13780000  0.83900000  0.89040000  1.0
  C  C55  1  0.24490000  0.92870000  0.86480000  1.0
  C  C56  1  0.13480000  0.62220000  0.92780000  1.0
  C  C57  1  0.04330000  0.66910000  0.96960000  1.0
  C  C58  1  0.80210000  0.22310000  0.90130000  1.0
  C  C59  1  0.71590000  0.16310000  0.85980000  1.0
  C  C60  1  0.90040000  0.33140000  0.88590000  1.0
  C  C61  1  0.79800000  0.43130000  0.86150000  1.0
  C  C62  1  0.90850000  0.12390000  0.92460000  1.0
  C  C63  1  0.99870000  0.16790000  0.96750000  1.0
  C  C64  1  0.25600000  0.27780000  0.40460000  1.0
  C  C65  1  0.18060000  0.34070000  0.36120000  1.0
  C  C66  1  0.36220000  0.16100000  0.39040000  1.0
  C  C67  1  0.25510000  0.07130000  0.36480000  1.0
  C  C68  1  0.36520000  0.37780000  0.42780000  1.0
  C  C69  1  0.45670000  0.33090000  0.46960000  1.0
  C  C70  1  0.69790000  0.77690000  0.40130000  1.0
  C  C71  1  0.78410000  0.83690000  0.35980000  1.0
  C  C72  1  0.59960000  0.66860000  0.38590000  1.0
  C  C73  1  0.70200000  0.56870000  0.36150000  1.0
  C  C74  1  0.59150000  0.87610000  0.42460000  1.0
  C  C75  1  0.50130000  0.83210000  0.46750000  1.0
  C  C76  1  0.75600000  0.22220000  0.59540000  1.0
  C  C77  1  0.68060000  0.15930000  0.63880000  1.0
  C  C78  1  0.86220000  0.33900000  0.60960000  1.0
  C  C79  1  0.75510000  0.42870000  0.63520000  1.0
  C  C80  1  0.86520000  0.12220000  0.57220000  1.0
  C  C81  1  0.95670000  0.16910000  0.53040000  1.0
  C  C82  1  0.19790000  0.72310000  0.59870000  1.0
  C  C83  1  0.28410000  0.66310000  0.64020000  1.0
  C  C84  1  0.09960000  0.83140000  0.61410000  1.0
  C  C85  1  0.20200000  0.93130000  0.63850000  1.0
  C  C86  1  0.09150000  0.62390000  0.57540000  1.0
  C  C87  1  0.00130000  0.66790000  0.53250000  1.0
  C  C88  1  0.74400000  0.77780000  0.09540000  1.0
  C  C89  1  0.81940000  0.84070000  0.13880000  1.0
  C  C90  1  0.63780000  0.66100000  0.10960000  1.0
  C  C91  1  0.74490000  0.57130000  0.13520000  1.0
  C  C92  1  0.63480000  0.87780000  0.07220000  1.0
  C  C93  1  0.54330000  0.83090000  0.03040000  1.0
  C  C94  1  0.30210000  0.27690000  0.09870000  1.0
  C  C95  1  0.21590000  0.33690000  0.14020000  1.0
  C  C96  1  0.40040000  0.16860000  0.11410000  1.0
  C  C97  1  0.29800000  0.06870000  0.13850000  1.0
  C  C98  1  0.40850000  0.37610000  0.07540000  1.0
  C  C99  1  0.49870000  0.33210000  0.03250000  1.0
  O  O100  1  0.37350000  0.75980000  0.93380000  1.0
  O  O101  1  0.46920000  0.64270000  0.86250000  1.0
  O  O102  1  0.22670000  0.62870000  0.82870000  1.0
  O  O103  1  0.25290000  0.03840000  0.88110000  1.0
  O  O104  1  0.31300000  0.89680000  0.82750000  1.0
  O  O105  1  0.89320000  0.64690000  0.97280000  1.0
  O  O106  1  0.12190000  0.72340000  0.00070000  1.0
  O  O107  1  0.67260000  0.26420000  0.93240000  1.0
  O  O108  1  0.56540000  0.14440000  0.86290000  1.0
  O  O109  1  0.80340000  0.13020000  0.82590000  1.0
  O  O110  1  0.79680000  0.53940000  0.87750000  1.0
  O  O111  1  0.72220000  0.40040000  0.82580000  1.0
  O  O112  1  0.91880000  0.22670000  0.99850000  1.0
  O  O113  1  0.14740000  0.14550000  0.97160000  1.0
  O  O114  1  0.12650000  0.24020000  0.43380000  1.0
  O  O115  1  0.03080000  0.35730000  0.36250000  1.0
  O  O116  1  0.27330000  0.37130000  0.32870000  1.0
  O  O117  1  0.24710000  0.96160000  0.38110000  1.0
  O  O118  1  0.18700000  0.10320000  0.32750000  1.0
  O  O119  1  0.60680000  0.35310000  0.47280000  1.0
  O  O120  1  0.37810000  0.27660000  0.50070000  1.0
  O  O121  1  0.82740000  0.73580000  0.43240000  1.0
  O  O122  1  0.93460000  0.85560000  0.36290000  1.0
  O  O123  1  0.69660000  0.86980000  0.32590000  1.0
  O  O124  1  0.70320000  0.46060000  0.37750000  1.0
  O  O125  1  0.77780000  0.59960000  0.32580000  1.0
  O  O126  1  0.58120000  0.77330000  0.49850000  1.0
  O  O127  1  0.35260000  0.85450000  0.47160000  1.0
  O  O128  1  0.62650000  0.25980000  0.56620000  1.0
  O  O129  1  0.53080000  0.14270000  0.63750000  1.0
  O  O130  1  0.77330000  0.12870000  0.67130000  1.0
  O  O131  1  0.74710000  0.53840000  0.61890000  1.0
  O  O132  1  0.68700000  0.39680000  0.67250000  1.0
  O  O133  1  0.10680000  0.14690000  0.52720000  1.0
  O  O134  1  0.87810000  0.22340000  0.49930000  1.0
  O  O135  1  0.32740000  0.76420000  0.56760000  1.0
  O  O136  1  0.43460000  0.64440000  0.63710000  1.0
  O  O137  1  0.19660000  0.63020000  0.67410000  1.0
  O  O138  1  0.20320000  0.03940000  0.62250000  1.0
  O  O139  1  0.27780000  0.90040000  0.67420000  1.0
  O  O140  1  0.08120000  0.72670000  0.50150000  1.0
  O  O141  1  0.85260000  0.64550000  0.52840000  1.0
  O  O142  1  0.87350000  0.74020000  0.06620000  1.0
  O  O143  1  0.96920000  0.85730000  0.13750000  1.0
  O  O144  1  0.72670000  0.87130000  0.17130000  1.0
  O  O145  1  0.75290000  0.46160000  0.11890000  1.0
  O  O146  1  0.81300000  0.60320000  0.17250000  1.0
  O  O147  1  0.39320000  0.85310000  0.02720000  1.0
  O  O148  1  0.62190000  0.77660000  0.99930000  1.0
  O  O149  1  0.17260000  0.23580000  0.06760000  1.0
  O  O150  1  0.06540000  0.35560000  0.13710000  1.0
  O  O151  1  0.30340000  0.36980000  0.17410000  1.0
  O  O152  1  0.29680000  0.96060000  0.12250000  1.0
  O  O153  1  0.22220000  0.09960000  0.17420000  1.0
  O  O154  1  0.41880000  0.27330000  0.00150000  1.0
  O  O155  1  0.64740000  0.35450000  0.02840000  1.0
