# generated using pymatgen
data_ZnH4C6N3O2
_symmetry_space_group_name_H-M   'P 1'
_cell_length_a   13.47500000
_cell_length_b   13.50900000
_cell_length_c   26.94900000
_cell_angle_alpha   90.00000000
_cell_angle_beta   90.00000000
_cell_angle_gamma   95.18000000
_symmetry_Int_Tables_number   1
_chemical_formula_structural   ZnH4C6N3O2
_chemical_formula_sum   'Zn16 H64 C96 N48 O32'
_cell_volume   4885.59349269
_cell_formula_units_Z   16
loop_
 _symmetry_equiv_pos_site_id
 _symmetry_equiv_pos_as_xyz
  1  'x, y, z'
loop_
 _atom_site_type_symbol
 _atom_site_label
 _atom_site_symmetry_multiplicity
 _atom_site_fract_x
 _atom_site_fract_y
 _atom_site_fract_z
 _atom_site_occupancy
  Zn  Zn0  1  0.22188000  0.86237000  0.97598000  1.0
  Zn  Zn1  1  0.63289000  0.74262000  0.94572000  1.0
  Zn  Zn2  1  0.25765000  0.68431000  0.07575000  1.0
  Zn  Zn3  1  0.18891000  0.29313000  0.95608000  1.0
  Zn  Zn4  1  0.27812000  0.63763000  0.47598000  1.0
  Zn  Zn5  1  0.86711000  0.75738000  0.44572000  1.0
  Zn  Zn6  1  0.24235000  0.81569000  0.57575000  1.0
  Zn  Zn7  1  0.31109000  0.20687000  0.45608000  1.0
  Zn  Zn8  1  0.77812000  0.13763000  0.02402000  1.0
  Zn  Zn9  1  0.36711000  0.25738000  0.05428000  1.0
  Zn  Zn10  1  0.74235000  0.31569000  0.92425000  1.0
  Zn  Zn11  1  0.81109000  0.70687000  0.04392000  1.0
  Zn  Zn12  1  0.72188000  0.36237000  0.52402000  1.0
  Zn  Zn13  1  0.13289000  0.24262000  0.55428000  1.0
  Zn  Zn14  1  0.75765000  0.18431000  0.42425000  1.0
  Zn  Zn15  1  0.68891000  0.79313000  0.54392000  1.0
  H  H16  1  0.02120000  0.61970000  0.07840000  1.0
  H  H17  1  0.63870000  0.52360000  0.90340000  1.0
  H  H18  1  0.82640000  0.47590000  0.01010000  1.0
  H  H19  1  0.48270000  0.65170000  0.03140000  1.0
  H  H20  1  0.31980000  0.02010000  0.05500000  1.0
  H  H21  1  0.12030000  0.05920000  0.95250000  1.0
  H  H22  1  0.44470000  0.86310000  0.93620000  1.0
  H  H23  1  0.98570000  0.80260000  0.96840000  1.0
  H  H24  1  0.59960000  0.64670000  0.79160000  1.0
  H  H25  1  0.37260000  0.88520000  0.73660000  1.0
  H  H26  1  0.60960000  0.63580000  0.70460000  1.0
  H  H27  1  0.35500000  0.89670000  0.82320000  1.0
  H  H28  1  0.07400000  0.89260000  0.72210000  1.0
  H  H29  1  0.60720000  0.94570000  0.77950000  1.0
  H  H30  1  0.05860000  0.90680000  0.80850000  1.0
  H  H31  1  0.63220000  0.93390000  0.69420000  1.0
  H  H32  1  0.47880000  0.88030000  0.57840000  1.0
  H  H33  1  0.86130000  0.97640000  0.40340000  1.0
  H  H34  1  0.67360000  0.02410000  0.51010000  1.0
  H  H35  1  0.01730000  0.84830000  0.53140000  1.0
  H  H36  1  0.18020000  0.47990000  0.55500000  1.0
  H  H37  1  0.37970000  0.44080000  0.45250000  1.0
  H  H38  1  0.05530000  0.63690000  0.43620000  1.0
  H  H39  1  0.51430000  0.69740000  0.46840000  1.0
  H  H40  1  0.90040000  0.85330000  0.29160000  1.0
  H  H41  1  0.12740000  0.61480000  0.23660000  1.0
  H  H42  1  0.89040000  0.86420000  0.20460000  1.0
  H  H43  1  0.14500000  0.60330000  0.32320000  1.0
  H  H44  1  0.42600000  0.60740000  0.22210000  1.0
  H  H45  1  0.89280000  0.55430000  0.27950000  1.0
  H  H46  1  0.44140000  0.59320000  0.30850000  1.0
  H  H47  1  0.86780000  0.56610000  0.19420000  1.0
  H  H48  1  0.97880000  0.38030000  0.92160000  1.0
  H  H49  1  0.36130000  0.47640000  0.09660000  1.0
  H  H50  1  0.17360000  0.52410000  0.98990000  1.0
  H  H51  1  0.51730000  0.34830000  0.96860000  1.0
  H  H52  1  0.68020000  0.97990000  0.94500000  1.0
  H  H53  1  0.87970000  0.94080000  0.04750000  1.0
  H  H54  1  0.55530000  0.13690000  0.06380000  1.0
  H  H55  1  0.01430000  0.19740000  0.03160000  1.0
  H  H56  1  0.40040000  0.35330000  0.20840000  1.0
  H  H57  1  0.62740000  0.11480000  0.26340000  1.0
  H  H58  1  0.39040000  0.36420000  0.29540000  1.0
  H  H59  1  0.64500000  0.10330000  0.17680000  1.0
  H  H60  1  0.92600000  0.10740000  0.27790000  1.0
  H  H61  1  0.39280000  0.05430000  0.22050000  1.0
  H  H62  1  0.94140000  0.09320000  0.19150000  1.0
  H  H63  1  0.36780000  0.06610000  0.30580000  1.0
  H  H64  1  0.52120000  0.11970000  0.42160000  1.0
  H  H65  1  0.13870000  0.02360000  0.59660000  1.0
  H  H66  1  0.32640000  0.97590000  0.48990000  1.0
  H  H67  1  0.98270000  0.15170000  0.46860000  1.0
  H  H68  1  0.81980000  0.52010000  0.44500000  1.0
  H  H69  1  0.62030000  0.55920000  0.54750000  1.0
  H  H70  1  0.94470000  0.36310000  0.56380000  1.0
  H  H71  1  0.48570000  0.30260000  0.53160000  1.0
  H  H72  1  0.09960000  0.14670000  0.70840000  1.0
  H  H73  1  0.87260000  0.38520000  0.76340000  1.0
  H  H74  1  0.10960000  0.13580000  0.79540000  1.0
  H  H75  1  0.85500000  0.39670000  0.67680000  1.0
  H  H76  1  0.57400000  0.39260000  0.77790000  1.0
  H  H77  1  0.10720000  0.44570000  0.72050000  1.0
  H  H78  1  0.55860000  0.40680000  0.69150000  1.0
  H  H79  1  0.13220000  0.43390000  0.80580000  1.0
  C  C80  1  0.20510000  0.89890000  0.82350000  1.0
  C  C81  1  0.03450000  0.66600000  0.05220000  1.0
  C  C82  1  0.68020000  0.53220000  0.93190000  1.0
  C  C83  1  0.78150000  0.50690000  0.98927000  1.0
  C  C84  1  0.45430000  0.70330000  0.01396000  1.0
  C  C85  1  0.22350000  0.88370000  0.72100000  1.0
  C  C86  1  0.27700000  0.05030000  0.03273000  1.0
  C  C87  1  0.16950000  0.07150000  0.97750000  1.0
  C  C88  1  0.43390000  0.81660000  0.96260000  1.0
  C  C89  1  0.23410000  0.86620000  0.66640000  1.0
  C  C90  1  0.01530000  0.76430000  0.99310000  1.0
  C  C91  1  0.60420000  0.79820000  0.79445000  1.0
  C  C92  1  0.62000000  0.78350000  0.69160000  1.0
  C  C93  1  0.60120000  0.80540000  0.84960000  1.0
  C  C94  1  0.63330000  0.77280000  0.63630000  1.0
  C  C95  1  0.60420000  0.70540000  0.77190000  1.0
  C  C96  1  0.30840000  0.88750000  0.75100000  1.0
  C  C97  1  0.61110000  0.69910000  0.72010000  1.0
  C  C98  1  0.29770000  0.89470000  0.80250000  1.0
  C  C99  1  0.13140000  0.89230000  0.74250000  1.0
  C  C100  1  0.61080000  0.88230000  0.76470000  1.0
  C  C101  1  0.12190000  0.90040000  0.79400000  1.0
  C  C102  1  0.19310000  0.89500000  0.87980000  1.0
  C  C103  1  0.62250000  0.87530000  0.71380000  1.0
  C  C104  1  0.29490000  0.60110000  0.32350000  1.0
  C  C105  1  0.46550000  0.83400000  0.55220000  1.0
  C  C106  1  0.81980000  0.96780000  0.43190000  1.0
  C  C107  1  0.71850000  0.99310000  0.48927000  1.0
  C  C108  1  0.04570000  0.79670000  0.51396000  1.0
  C  C109  1  0.27650000  0.61630000  0.22100000  1.0
  C  C110  1  0.22300000  0.44970000  0.53273000  1.0
  C  C111  1  0.33050000  0.42850000  0.47750000  1.0
  C  C112  1  0.06610000  0.68340000  0.46260000  1.0
  C  C113  1  0.26590000  0.63380000  0.16640000  1.0
  C  C114  1  0.48470000  0.73570000  0.49310000  1.0
  C  C115  1  0.89580000  0.70180000  0.29445000  1.0
  C  C116  1  0.88000000  0.71650000  0.19160000  1.0
  C  C117  1  0.89880000  0.69460000  0.34960000  1.0
  C  C118  1  0.86670000  0.72720000  0.13630000  1.0
  C  C119  1  0.89580000  0.79460000  0.27190000  1.0
  C  C120  1  0.19160000  0.61250000  0.25100000  1.0
  C  C121  1  0.88890000  0.80090000  0.22010000  1.0
  C  C122  1  0.20230000  0.60530000  0.30250000  1.0
  C  C123  1  0.36860000  0.60770000  0.24250000  1.0
  C  C124  1  0.88920000  0.61770000  0.26470000  1.0
  C  C125  1  0.37810000  0.59960000  0.29400000  1.0
  C  C126  1  0.30690000  0.60500000  0.37980000  1.0
  C  C127  1  0.87750000  0.62470000  0.21380000  1.0
  C  C128  1  0.79490000  0.10110000  0.17650000  1.0
  C  C129  1  0.96550000  0.33400000  0.94780000  1.0
  C  C130  1  0.31980000  0.46780000  0.06810000  1.0
  C  C131  1  0.21850000  0.49310000  0.01073000  1.0
  C  C132  1  0.54570000  0.29670000  0.98604000  1.0
  C  C133  1  0.77650000  0.11630000  0.27900000  1.0
  C  C134  1  0.72300000  0.94970000  0.96727000  1.0
  C  C135  1  0.83050000  0.92850000  0.02250000  1.0
  C  C136  1  0.56610000  0.18340000  0.03740000  1.0
  C  C137  1  0.76590000  0.13380000  0.33360000  1.0
  C  C138  1  0.98470000  0.23570000  0.00690000  1.0
  C  C139  1  0.39580000  0.20180000  0.20555000  1.0
  C  C140  1  0.38000000  0.21650000  0.30840000  1.0
  C  C141  1  0.39880000  0.19460000  0.15040000  1.0
  C  C142  1  0.36670000  0.22720000  0.36370000  1.0
  C  C143  1  0.39580000  0.29460000  0.22810000  1.0
  C  C144  1  0.69160000  0.11250000  0.24900000  1.0
  C  C145  1  0.38890000  0.30090000  0.27990000  1.0
  C  C146  1  0.70230000  0.10530000  0.19750000  1.0
  C  C147  1  0.86860000  0.10770000  0.25750000  1.0
  C  C148  1  0.38920000  0.11770000  0.23530000  1.0
  C  C149  1  0.87810000  0.09960000  0.20600000  1.0
  C  C150  1  0.80690000  0.10500000  0.12020000  1.0
  C  C151  1  0.37750000  0.12470000  0.28620000  1.0
  C  C152  1  0.70510000  0.39890000  0.67650000  1.0
  C  C153  1  0.53450000  0.16600000  0.44780000  1.0
  C  C154  1  0.18020000  0.03220000  0.56810000  1.0
  C  C155  1  0.28150000  0.00690000  0.51073000  1.0
  C  C156  1  0.95430000  0.20330000  0.48604000  1.0
  C  C157  1  0.72350000  0.38370000  0.77900000  1.0
  C  C158  1  0.77700000  0.55030000  0.46727000  1.0
  C  C159  1  0.66950000  0.57150000  0.52250000  1.0
  C  C160  1  0.93390000  0.31660000  0.53740000  1.0
  C  C161  1  0.73410000  0.36620000  0.83360000  1.0
  C  C162  1  0.51530000  0.26430000  0.50690000  1.0
  C  C163  1  0.10420000  0.29820000  0.70555000  1.0
  C  C164  1  0.12000000  0.28350000  0.80840000  1.0
  C  C165  1  0.10120000  0.30540000  0.65040000  1.0
  C  C166  1  0.13330000  0.27280000  0.86370000  1.0
  C  C167  1  0.10420000  0.20540000  0.72810000  1.0
  C  C168  1  0.80840000  0.38750000  0.74900000  1.0
  C  C169  1  0.11110000  0.19910000  0.77990000  1.0
  C  C170  1  0.79770000  0.39470000  0.69750000  1.0
  C  C171  1  0.63140000  0.39230000  0.75750000  1.0
  C  C172  1  0.11080000  0.38230000  0.73530000  1.0
  C  C173  1  0.62190000  0.40040000  0.70600000  1.0
  C  C174  1  0.69310000  0.39500000  0.62020000  1.0
  C  C175  1  0.12250000  0.37530000  0.78620000  1.0
  N  N176  1  0.49940000  0.75290000  0.97580000  1.0
  N  N177  1  0.21400000  0.99910000  0.00162000  1.0
  N  N178  1  0.73690000  0.46310000  0.94906000  1.0
  N  N179  1  0.36600000  0.73390000  0.02476000  1.0
  N  N180  1  0.12570000  0.70210000  0.03894000  1.0
  N  N181  1  0.68890000  0.61420000  0.95945000  1.0
  N  N182  1  0.35270000  0.80780000  0.99009000  1.0
  N  N183  1  0.27300000  0.14660000  0.02910000  1.0
  N  N184  1  0.20280000  0.16020000  0.99288000  1.0
  N  N185  1  0.96270000  0.70220000  0.02442000  1.0
  N  N186  1  0.75570000  0.59740000  0.99642000  1.0
  N  N187  1  0.11300000  0.76630000  0.00035000  1.0
  N  N188  1  0.00060000  0.74710000  0.47580000  1.0
  N  N189  1  0.28600000  0.50090000  0.50162000  1.0
  N  N190  1  0.76310000  0.03690000  0.44906000  1.0
  N  N191  1  0.13400000  0.76610000  0.52476000  1.0
  N  N192  1  0.37430000  0.79790000  0.53894000  1.0
  N  N193  1  0.81110000  0.88580000  0.45945000  1.0
  N  N194  1  0.14730000  0.69220000  0.49009000  1.0
  N  N195  1  0.22700000  0.35340000  0.52910000  1.0
  N  N196  1  0.29720000  0.33980000  0.49288000  1.0
  N  N197  1  0.53730000  0.79780000  0.52442000  1.0
  N  N198  1  0.74430000  0.90260000  0.49642000  1.0
  N  N199  1  0.38700000  0.73370000  0.50035000  1.0
  N  N200  1  0.50060000  0.24710000  0.02420000  1.0
  N  N201  1  0.78600000  0.00090000  0.99838000  1.0
  N  N202  1  0.26310000  0.53690000  0.05094000  1.0
  N  N203  1  0.63400000  0.26610000  0.97524000  1.0
  N  N204  1  0.87430000  0.29790000  0.96106000  1.0
  N  N205  1  0.31110000  0.38580000  0.04055000  1.0
  N  N206  1  0.64730000  0.19220000  0.00991000  1.0
  N  N207  1  0.72700000  0.85340000  0.97090000  1.0
  N  N208  1  0.79720000  0.83980000  0.00712000  1.0
  N  N209  1  0.03730000  0.29780000  0.97558000  1.0
  N  N210  1  0.24430000  0.40260000  0.00358000  1.0
  N  N211  1  0.88700000  0.23370000  0.99965000  1.0
  N  N212  1  0.99940000  0.25290000  0.52420000  1.0
  N  N213  1  0.71400000  0.49910000  0.49838000  1.0
  N  N214  1  0.23690000  0.96310000  0.55094000  1.0
  N  N215  1  0.86600000  0.23390000  0.47524000  1.0
  N  N216  1  0.62570000  0.20210000  0.46106000  1.0
  N  N217  1  0.18890000  0.11420000  0.54055000  1.0
  N  N218  1  0.85270000  0.30780000  0.50991000  1.0
  N  N219  1  0.77300000  0.64660000  0.47090000  1.0
  N  N220  1  0.70280000  0.66020000  0.50712000  1.0
  N  N221  1  0.46270000  0.20220000  0.47558000  1.0
  N  N222  1  0.25570000  0.09740000  0.50358000  1.0
  N  N223  1  0.61300000  0.26630000  0.49965000  1.0
  O  O224  1  0.26870000  0.89040000  0.90480000  1.0
  O  O225  1  0.62590000  0.72890000  0.87345000  1.0
  O  O226  1  0.15520000  0.84430000  0.64066000  1.0
  O  O227  1  0.31860000  0.87110000  0.64649000  1.0
  O  O228  1  0.66750000  0.85120000  0.61258000  1.0
  O  O229  1  0.57990000  0.88180000  0.87101000  1.0
  O  O230  1  0.61270000  0.69230000  0.61589000  1.0
  O  O231  1  0.10530000  0.90020000  0.89900000  1.0
  O  O232  1  0.23130000  0.60960000  0.40480000  1.0
  O  O233  1  0.87410000  0.77110000  0.37345000  1.0
  O  O234  1  0.34480000  0.65570000  0.14066000  1.0
  O  O235  1  0.18140000  0.62890000  0.14649000  1.0
  O  O236  1  0.83250000  0.64880000  0.11258000  1.0
  O  O237  1  0.92010000  0.61820000  0.37101000  1.0
  O  O238  1  0.88730000  0.80770000  0.11589000  1.0
  O  O239  1  0.39470000  0.59980000  0.39900000  1.0
  O  O240  1  0.73130000  0.10960000  0.09520000  1.0
  O  O241  1  0.37410000  0.27110000  0.12655000  1.0
  O  O242  1  0.84480000  0.15570000  0.35934000  1.0
  O  O243  1  0.68140000  0.12890000  0.35351000  1.0
  O  O244  1  0.33250000  0.14880000  0.38742000  1.0
  O  O245  1  0.42010000  0.11820000  0.12899000  1.0
  O  O246  1  0.38730000  0.30770000  0.38411000  1.0
  O  O247  1  0.89470000  0.09980000  0.10100000  1.0
  O  O248  1  0.76870000  0.39040000  0.59520000  1.0
  O  O249  1  0.12590000  0.22890000  0.62655000  1.0
  O  O250  1  0.65520000  0.34430000  0.85934000  1.0
  O  O251  1  0.81860000  0.37110000  0.85351000  1.0
  O  O252  1  0.16750000  0.35120000  0.88742000  1.0
  O  O253  1  0.07990000  0.38180000  0.62899000  1.0
  O  O254  1  0.11270000  0.19230000  0.88411000  1.0
  O  O255  1  0.60530000  0.40020000  0.60100000  1.0
