# generated using pymatgen
data_Tm3H9W12C21N3O43
_symmetry_space_group_name_H-M   'P 1'
_cell_length_a   16.65020000
_cell_length_b   16.65020000
_cell_length_c   51.31300000
_cell_angle_alpha   90.00000000
_cell_angle_beta   90.00000000
_cell_angle_gamma   120.00000000
_symmetry_Int_Tables_number   1
_chemical_formula_structural   Tm3H9W12C21N3O43
_chemical_formula_sum   'Tm18 H54 W72 C126 N18 O258'
_cell_volume   12319.60964451
_cell_formula_units_Z   6
loop_
 _symmetry_equiv_pos_site_id
 _symmetry_equiv_pos_as_xyz
  1  'x, y, z'
loop_
 _atom_site_type_symbol
 _atom_site_label
 _atom_site_symmetry_multiplicity
 _atom_site_fract_x
 _atom_site_fract_y
 _atom_site_fract_z
 _atom_site_occupancy
  Tm  Tm0  1  0.32229000  0.21718000  0.16869000  1.0
  Tm  Tm1  1  0.98896000  0.55051000  0.50202000  1.0
  Tm  Tm2  1  0.65562000  0.88385000  0.83535000  1.0
  Tm  Tm3  1  0.78282000  0.10511000  0.16869000  1.0
  Tm  Tm4  1  0.44949000  0.43844000  0.50202000  1.0
  Tm  Tm5  1  0.11615000  0.77178000  0.83535000  1.0
  Tm  Tm6  1  0.89489000  0.67771000  0.16869000  1.0
  Tm  Tm7  1  0.56156000  0.01104000  0.50202000  1.0
  Tm  Tm8  1  0.22822000  0.34438000  0.83535000  1.0
  Tm  Tm9  1  0.78282000  0.67771000  0.66869000  1.0
  Tm  Tm10  1  0.44949000  0.01104000  0.00202000  1.0
  Tm  Tm11  1  0.11615000  0.34438000  0.33535000  1.0
  Tm  Tm12  1  0.89489000  0.21718000  0.66869000  1.0
  Tm  Tm13  1  0.56156000  0.55051000  0.00202000  1.0
  Tm  Tm14  1  0.22822000  0.88385000  0.33535000  1.0
  Tm  Tm15  1  0.32229000  0.10511000  0.66869000  1.0
  Tm  Tm16  1  0.98896000  0.43844000  0.00202000  1.0
  Tm  Tm17  1  0.65562000  0.77178000  0.33535000  1.0
  H  H18  1  0.49580000  0.43290000  0.22580000  1.0
  H  H19  1  0.49900000  0.56420000  0.29210000  1.0
  H  H20  1  0.27580000  0.31520000  0.27430000  1.0
  H  H21  1  0.16247000  0.76623000  0.55913000  1.0
  H  H22  1  0.16567000  0.89753000  0.62543000  1.0
  H  H23  1  0.94247000  0.64853000  0.60763000  1.0
  H  H24  1  0.82913000  0.09957000  0.89247000  1.0
  H  H25  1  0.83233000  0.23087000  0.95877000  1.0
  H  H26  1  0.60913000  0.98187000  0.94097000  1.0
  H  H27  1  0.56710000  0.06290000  0.22580000  1.0
  H  H28  1  0.43580000  0.93480000  0.29210000  1.0
  H  H29  1  0.68480000  0.96060000  0.27430000  1.0
  H  H30  1  0.23377000  0.39623000  0.55913000  1.0
  H  H31  1  0.10247000  0.26813000  0.62543000  1.0
  H  H32  1  0.35147000  0.29393000  0.60763000  1.0
  H  H33  1  0.90043000  0.72957000  0.89247000  1.0
  H  H34  1  0.76913000  0.60147000  0.95877000  1.0
  H  H35  1  0.01813000  0.62727000  0.94097000  1.0
  H  H36  1  0.93710000  0.50420000  0.22580000  1.0
  H  H37  1  0.06520000  0.50100000  0.29210000  1.0
  H  H38  1  0.03940000  0.72420000  0.27430000  1.0
  H  H39  1  0.60377000  0.83753000  0.55913000  1.0
  H  H40  1  0.73187000  0.83433000  0.62543000  1.0
  H  H41  1  0.70607000  0.05753000  0.60763000  1.0
  H  H42  1  0.27043000  0.17087000  0.89247000  1.0
  H  H43  1  0.39853000  0.16767000  0.95877000  1.0
  H  H44  1  0.37273000  0.39087000  0.94097000  1.0
  H  H45  1  0.56710000  0.50420000  0.72580000  1.0
  H  H46  1  0.43580000  0.50100000  0.79210000  1.0
  H  H47  1  0.68480000  0.72420000  0.77430000  1.0
  H  H48  1  0.23377000  0.83753000  0.05913000  1.0
  H  H49  1  0.10247000  0.83433000  0.12543000  1.0
  H  H50  1  0.35147000  0.05753000  0.10763000  1.0
  H  H51  1  0.90043000  0.17087000  0.39247000  1.0
  H  H52  1  0.76913000  0.16767000  0.45877000  1.0
  H  H53  1  0.01813000  0.39087000  0.44097000  1.0
  H  H54  1  0.93710000  0.43290000  0.72580000  1.0
  H  H55  1  0.06520000  0.56420000  0.79210000  1.0
  H  H56  1  0.03940000  0.31520000  0.77430000  1.0
  H  H57  1  0.60377000  0.76623000  0.05913000  1.0
  H  H58  1  0.73187000  0.89753000  0.12543000  1.0
  H  H59  1  0.70607000  0.64853000  0.10763000  1.0
  H  H60  1  0.27043000  0.09957000  0.39247000  1.0
  H  H61  1  0.39853000  0.23087000  0.45877000  1.0
  H  H62  1  0.37273000  0.98187000  0.44097000  1.0
  H  H63  1  0.49580000  0.06290000  0.72580000  1.0
  H  H64  1  0.49900000  0.93480000  0.79210000  1.0
  H  H65  1  0.27580000  0.96060000  0.77430000  1.0
  H  H66  1  0.16247000  0.39623000  0.05913000  1.0
  H  H67  1  0.16567000  0.26813000  0.12543000  1.0
  H  H68  1  0.94247000  0.29393000  0.10763000  1.0
  H  H69  1  0.82913000  0.72957000  0.39247000  1.0
  H  H70  1  0.83233000  0.60147000  0.45877000  1.0
  H  H71  1  0.60913000  0.62727000  0.44097000  1.0
  W  W72  1  0.51816000  0.62430000  0.17320000  1.0
  W  W73  1  0.30545000  0.44762000  0.16910000  1.0
  W  W74  1  0.25835000  0.53290000  0.22964000  1.0
  W  W75  1  0.39798000  0.58509000  0.11885000  1.0
  W  W76  1  0.18483000  0.95763000  0.50653000  1.0
  W  W77  1  0.97212000  0.78095000  0.50243000  1.0
  W  W78  1  0.92502000  0.86623000  0.56298000  1.0
  W  W79  1  0.06465000  0.91842000  0.45219000  1.0
  W  W80  1  0.85149000  0.29097000  0.83987000  1.0
  W  W81  1  0.63878000  0.11429000  0.83577000  1.0
  W  W82  1  0.59168000  0.19957000  0.89631000  1.0
  W  W83  1  0.73131000  0.25176000  0.78552000  1.0
  W  W84  1  0.37570000  0.89386000  0.17320000  1.0
  W  W85  1  0.55238000  0.85783000  0.16910000  1.0
  W  W86  1  0.46710000  0.72545000  0.22964000  1.0
  W  W87  1  0.41491000  0.81289000  0.11885000  1.0
  W  W88  1  0.04237000  0.22719000  0.50653000  1.0
  W  W89  1  0.21905000  0.19116000  0.50243000  1.0
  W  W90  1  0.13377000  0.05878000  0.56298000  1.0
  W  W91  1  0.08158000  0.14622000  0.45219000  1.0
  W  W92  1  0.70903000  0.56053000  0.83987000  1.0
  W  W93  1  0.88571000  0.52450000  0.83577000  1.0
  W  W94  1  0.80043000  0.39212000  0.89631000  1.0
  W  W95  1  0.74824000  0.47956000  0.78552000  1.0
  W  W96  1  0.10614000  0.48184000  0.17320000  1.0
  W  W97  1  0.14217000  0.69455000  0.16910000  1.0
  W  W98  1  0.27455000  0.74165000  0.22964000  1.0
  W  W99  1  0.18711000  0.60202000  0.11885000  1.0
  W  W100  1  0.77281000  0.81517000  0.50653000  1.0
  W  W101  1  0.80884000  0.02788000  0.50243000  1.0
  W  W102  1  0.94122000  0.07498000  0.56298000  1.0
  W  W103  1  0.85378000  0.93535000  0.45219000  1.0
  W  W104  1  0.43947000  0.14851000  0.83987000  1.0
  W  W105  1  0.47550000  0.36122000  0.83577000  1.0
  W  W106  1  0.60788000  0.40832000  0.89631000  1.0
  W  W107  1  0.52044000  0.26869000  0.78552000  1.0
  W  W108  1  0.37570000  0.48184000  0.67320000  1.0
  W  W109  1  0.55238000  0.69455000  0.66910000  1.0
  W  W110  1  0.46710000  0.74165000  0.72964000  1.0
  W  W111  1  0.41491000  0.60202000  0.61885000  1.0
  W  W112  1  0.04237000  0.81517000  0.00653000  1.0
  W  W113  1  0.21905000  0.02788000  0.00243000  1.0
  W  W114  1  0.13377000  0.07498000  0.06298000  1.0
  W  W115  1  0.08158000  0.93535000  0.95219000  1.0
  W  W116  1  0.70903000  0.14851000  0.33987000  1.0
  W  W117  1  0.88571000  0.36122000  0.33577000  1.0
  W  W118  1  0.80043000  0.40832000  0.39631000  1.0
  W  W119  1  0.74824000  0.26869000  0.28552000  1.0
  W  W120  1  0.10614000  0.62430000  0.67320000  1.0
  W  W121  1  0.14217000  0.44762000  0.66910000  1.0
  W  W122  1  0.27455000  0.53290000  0.72964000  1.0
  W  W123  1  0.18711000  0.58509000  0.61885000  1.0
  W  W124  1  0.77281000  0.95763000  0.00653000  1.0
  W  W125  1  0.80884000  0.78095000  0.00243000  1.0
  W  W126  1  0.94122000  0.86623000  0.06298000  1.0
  W  W127  1  0.85378000  0.91842000  0.95219000  1.0
  W  W128  1  0.43947000  0.29097000  0.33987000  1.0
  W  W129  1  0.47550000  0.11429000  0.33577000  1.0
  W  W130  1  0.60788000  0.19957000  0.39631000  1.0
  W  W131  1  0.52044000  0.25176000  0.28552000  1.0
  W  W132  1  0.51816000  0.89386000  0.67320000  1.0
  W  W133  1  0.30545000  0.85783000  0.66910000  1.0
  W  W134  1  0.25835000  0.72545000  0.72964000  1.0
  W  W135  1  0.39798000  0.81289000  0.61885000  1.0
  W  W136  1  0.18483000  0.22719000  0.00653000  1.0
  W  W137  1  0.97212000  0.19116000  0.00243000  1.0
  W  W138  1  0.92502000  0.05878000  0.06298000  1.0
  W  W139  1  0.06465000  0.14622000  0.95219000  1.0
  W  W140  1  0.85149000  0.56053000  0.33987000  1.0
  W  W141  1  0.63878000  0.52450000  0.33577000  1.0
  W  W142  1  0.59168000  0.39212000  0.39631000  1.0
  W  W143  1  0.73131000  0.47956000  0.28552000  1.0
  C  C144  1  0.37930000  0.36360000  0.24700000  1.0
  C  C145  1  0.46420000  0.43530000  0.24120000  1.0
  C  C146  1  0.37930000  0.44080000  0.28630000  1.0
  C  C147  1  0.46660000  0.51330000  0.28030000  1.0
  C  C148  1  0.33610000  0.36590000  0.27000000  1.0
  C  C149  1  0.33030000  0.44520000  0.31010000  1.0
  C  C150  1  0.33290000  0.28020000  0.22950000  1.0
  C  C151  1  0.04597000  0.69693000  0.58033000  1.0
  C  C152  1  0.13087000  0.76863000  0.57453000  1.0
  C  C153  1  0.04597000  0.77413000  0.61963000  1.0
  C  C154  1  0.13327000  0.84663000  0.61363000  1.0
  C  C155  1  0.00277000  0.69923000  0.60333000  1.0
  C  C156  1  0.99697000  0.77853000  0.64343000  1.0
  C  C157  1  0.99957000  0.61353000  0.56283000  1.0
  C  C158  1  0.71263000  0.03027000  0.91367000  1.0
  C  C159  1  0.79753000  0.10197000  0.90787000  1.0
  C  C160  1  0.71263000  0.10747000  0.95297000  1.0
  C  C161  1  0.79993000  0.17997000  0.94697000  1.0
  C  C162  1  0.66943000  0.03257000  0.93667000  1.0
  C  C163  1  0.66363000  0.11187000  0.97677000  1.0
  C  C164  1  0.66623000  0.94687000  0.89617000  1.0
  C  C165  1  0.63640000  0.01570000  0.24700000  1.0
  C  C166  1  0.56470000  0.02890000  0.24120000  1.0
  C  C167  1  0.55920000  0.93850000  0.28630000  1.0
  C  C168  1  0.48670000  0.95330000  0.28030000  1.0
  C  C169  1  0.63410000  0.97020000  0.27000000  1.0
  C  C170  1  0.55480000  0.88510000  0.31010000  1.0
  C  C171  1  0.71980000  0.05270000  0.22950000  1.0
  C  C172  1  0.30307000  0.34903000  0.58033000  1.0
  C  C173  1  0.23137000  0.36223000  0.57453000  1.0
  C  C174  1  0.22587000  0.27183000  0.61963000  1.0
  C  C175  1  0.15337000  0.28663000  0.61363000  1.0
  C  C176  1  0.30077000  0.30353000  0.60333000  1.0
  C  C177  1  0.22147000  0.21843000  0.64343000  1.0
  C  C178  1  0.38647000  0.38603000  0.56283000  1.0
  C  C179  1  0.96973000  0.68237000  0.91367000  1.0
  C  C180  1  0.89803000  0.69557000  0.90787000  1.0
  C  C181  1  0.89253000  0.60517000  0.95297000  1.0
  C  C182  1  0.82003000  0.61997000  0.94697000  1.0
  C  C183  1  0.96743000  0.63687000  0.93667000  1.0
  C  C184  1  0.88813000  0.55177000  0.97677000  1.0
  C  C185  1  0.05313000  0.71937000  0.89617000  1.0
  C  C186  1  0.98430000  0.62070000  0.24700000  1.0
  C  C187  1  0.97110000  0.53580000  0.24120000  1.0
  C  C188  1  0.06150000  0.62070000  0.28630000  1.0
  C  C189  1  0.04670000  0.53340000  0.28030000  1.0
  C  C190  1  0.02980000  0.66390000  0.27000000  1.0
  C  C191  1  0.11490000  0.66970000  0.31010000  1.0
  C  C192  1  0.94730000  0.66710000  0.22950000  1.0
  C  C193  1  0.65097000  0.95403000  0.58033000  1.0
  C  C194  1  0.63777000  0.86913000  0.57453000  1.0
  C  C195  1  0.72817000  0.95403000  0.61963000  1.0
  C  C196  1  0.71337000  0.86673000  0.61363000  1.0
  C  C197  1  0.69647000  0.99723000  0.60333000  1.0
  C  C198  1  0.78157000  0.00303000  0.64343000  1.0
  C  C199  1  0.61397000  0.00043000  0.56283000  1.0
  C  C200  1  0.31763000  0.28737000  0.91367000  1.0
  C  C201  1  0.30443000  0.20247000  0.90787000  1.0
  C  C202  1  0.39483000  0.28737000  0.95297000  1.0
  C  C203  1  0.38003000  0.20007000  0.94697000  1.0
  C  C204  1  0.36313000  0.33057000  0.93667000  1.0
  C  C205  1  0.44823000  0.33637000  0.97677000  1.0
  C  C206  1  0.28063000  0.33377000  0.89617000  1.0
  C  C207  1  0.63640000  0.62070000  0.74700000  1.0
  C  C208  1  0.56470000  0.53580000  0.74120000  1.0
  C  C209  1  0.55920000  0.62070000  0.78630000  1.0
  C  C210  1  0.48670000  0.53340000  0.78030000  1.0
  C  C211  1  0.63410000  0.66390000  0.77000000  1.0
  C  C212  1  0.55480000  0.66970000  0.81010000  1.0
  C  C213  1  0.71980000  0.66710000  0.72950000  1.0
  C  C214  1  0.30307000  0.95403000  0.08033000  1.0
  C  C215  1  0.23137000  0.86913000  0.07453000  1.0
  C  C216  1  0.22587000  0.95403000  0.11963000  1.0
  C  C217  1  0.15337000  0.86673000  0.11363000  1.0
  C  C218  1  0.30077000  0.99723000  0.10333000  1.0
  C  C219  1  0.22147000  0.00303000  0.14343000  1.0
  C  C220  1  0.38647000  0.00043000  0.06283000  1.0
  C  C221  1  0.96973000  0.28737000  0.41367000  1.0
  C  C222  1  0.89803000  0.20247000  0.40787000  1.0
  C  C223  1  0.89253000  0.28737000  0.45297000  1.0
  C  C224  1  0.82003000  0.20007000  0.44697000  1.0
  C  C225  1  0.96743000  0.33057000  0.43667000  1.0
  C  C226  1  0.88813000  0.33637000  0.47677000  1.0
  C  C227  1  0.05313000  0.33377000  0.39617000  1.0
  C  C228  1  0.98430000  0.36360000  0.74700000  1.0
  C  C229  1  0.97110000  0.43530000  0.74120000  1.0
  C  C230  1  0.06150000  0.44080000  0.78630000  1.0
  C  C231  1  0.04670000  0.51330000  0.78030000  1.0
  C  C232  1  0.02980000  0.36590000  0.77000000  1.0
  C  C233  1  0.11490000  0.44520000  0.81010000  1.0
  C  C234  1  0.94730000  0.28020000  0.72950000  1.0
  C  C235  1  0.65097000  0.69693000  0.08033000  1.0
  C  C236  1  0.63777000  0.76863000  0.07453000  1.0
  C  C237  1  0.72817000  0.77413000  0.11963000  1.0
  C  C238  1  0.71337000  0.84663000  0.11363000  1.0
  C  C239  1  0.69647000  0.69923000  0.10333000  1.0
  C  C240  1  0.78157000  0.77853000  0.14343000  1.0
  C  C241  1  0.61397000  0.61353000  0.06283000  1.0
  C  C242  1  0.31763000  0.03027000  0.41367000  1.0
  C  C243  1  0.30443000  0.10197000  0.40787000  1.0
  C  C244  1  0.39483000  0.10747000  0.45297000  1.0
  C  C245  1  0.38003000  0.17997000  0.44697000  1.0
  C  C246  1  0.36313000  0.03257000  0.43667000  1.0
  C  C247  1  0.44823000  0.11187000  0.47677000  1.0
  C  C248  1  0.28063000  0.94687000  0.39617000  1.0
  C  C249  1  0.37930000  0.01570000  0.74700000  1.0
  C  C250  1  0.46420000  0.02890000  0.74120000  1.0
  C  C251  1  0.37930000  0.93850000  0.78630000  1.0
  C  C252  1  0.46660000  0.95330000  0.78030000  1.0
  C  C253  1  0.33610000  0.97020000  0.77000000  1.0
  C  C254  1  0.33030000  0.88510000  0.81010000  1.0
  C  C255  1  0.33290000  0.05270000  0.72950000  1.0
  C  C256  1  0.04597000  0.34903000  0.08033000  1.0
  C  C257  1  0.13087000  0.36223000  0.07453000  1.0
  C  C258  1  0.04597000  0.27183000  0.11963000  1.0
  C  C259  1  0.13327000  0.28663000  0.11363000  1.0
  C  C260  1  0.00277000  0.30353000  0.10333000  1.0
  C  C261  1  0.99697000  0.21843000  0.14343000  1.0
  C  C262  1  0.99957000  0.38603000  0.06283000  1.0
  C  C263  1  0.71263000  0.68237000  0.41367000  1.0
  C  C264  1  0.79753000  0.69557000  0.40787000  1.0
  C  C265  1  0.71263000  0.60517000  0.45297000  1.0
  C  C266  1  0.79993000  0.61997000  0.44697000  1.0
  C  C267  1  0.66943000  0.63687000  0.43667000  1.0
  C  C268  1  0.66363000  0.55177000  0.47677000  1.0
  C  C269  1  0.66623000  0.71937000  0.39617000  1.0
  N  N270  1  0.50500000  0.50990000  0.25730000  1.0
  N  N271  1  0.17167000  0.84323000  0.59063000  1.0
  N  N272  1  0.83833000  0.17657000  0.92397000  1.0
  N  N273  1  0.49010000  0.99510000  0.25730000  1.0
  N  N274  1  0.15677000  0.32843000  0.59063000  1.0
  N  N275  1  0.82343000  0.66177000  0.92397000  1.0
  N  N276  1  0.00490000  0.49500000  0.25730000  1.0
  N  N277  1  0.67157000  0.82833000  0.59063000  1.0
  N  N278  1  0.33823000  0.16167000  0.92397000  1.0
  N  N279  1  0.49010000  0.49500000  0.75730000  1.0
  N  N280  1  0.15677000  0.82833000  0.09063000  1.0
  N  N281  1  0.82343000  0.16167000  0.42397000  1.0
  N  N282  1  0.00490000  0.50990000  0.75730000  1.0
  N  N283  1  0.67157000  0.84323000  0.09063000  1.0
  N  N284  1  0.33823000  0.17657000  0.42397000  1.0
  N  N285  1  0.50500000  0.99510000  0.75730000  1.0
  N  N286  1  0.17167000  0.32843000  0.09063000  1.0
  N  N287  1  0.83833000  0.66177000  0.42397000  1.0
  O  O288  1  0.43990000  0.49490000  0.17840000  1.0
  O  O289  1  0.27780000  0.33220000  0.17180000  1.0
  O  O290  1  0.37780000  0.59410000  0.16150000  1.0
  O  O291  1  0.50800000  0.60620000  0.13540000  1.0
  O  O292  1  0.29850000  0.47950000  0.20570000  1.0
  O  O293  1  0.24540000  0.38500000  0.31190000  1.0
  O  O294  1  0.49650000  0.65430000  0.20740000  1.0
  O  O295  1  0.37460000  0.28750000  0.20790000  1.0
  O  O296  1  0.33440000  0.45560000  0.13340000  1.0
  O  O297  1  0.19310000  0.43970000  0.16510000  1.0
  O  O298  1  0.22600000  0.62200000  0.24520000  1.0
  O  O299  1  0.43670000  0.71000000  0.11580000  1.0
  O  O300  1  0.37160000  0.50180000  0.32720000  1.0
  O  O301  1  0.26460000  0.21330000  0.23720000  1.0
  O  O302  1  0.10657000  0.82823000  0.51173000  1.0
  O  O303  1  0.94447000  0.66553000  0.50513000  1.0
  O  O304  1  0.04447000  0.92743000  0.49483000  1.0
  O  O305  1  0.17467000  0.93953000  0.46873000  1.0
  O  O306  1  0.96517000  0.81283000  0.53903000  1.0
  O  O307  1  0.91207000  0.71833000  0.64523000  1.0
  O  O308  1  0.16317000  0.98763000  0.54073000  1.0
  O  O309  1  0.04127000  0.62083000  0.54123000  1.0
  O  O310  1  0.00107000  0.78893000  0.46673000  1.0
  O  O311  1  0.85977000  0.77303000  0.49843000  1.0
  O  O312  1  0.89267000  0.95533000  0.57853000  1.0
  O  O313  1  0.10337000  0.04333000  0.44913000  1.0
  O  O314  1  0.03827000  0.83513000  0.66053000  1.0
  O  O315  1  0.93127000  0.54663000  0.57053000  1.0
  O  O316  1  0.77323000  0.16157000  0.84507000  1.0
  O  O317  1  0.61113000  0.99887000  0.83847000  1.0
  O  O318  1  0.71113000  0.26077000  0.82817000  1.0
  O  O319  1  0.84133000  0.27287000  0.80207000  1.0
  O  O320  1  0.63183000  0.14617000  0.87237000  1.0
  O  O321  1  0.57873000  0.05167000  0.97857000  1.0
  O  O322  1  0.82983000  0.32097000  0.87407000  1.0
  O  O323  1  0.70793000  0.95417000  0.87457000  1.0
  O  O324  1  0.66773000  0.12227000  0.80007000  1.0
  O  O325  1  0.52643000  0.10637000  0.83177000  1.0
  O  O326  1  0.55933000  0.28867000  0.91187000  1.0
  O  O327  1  0.77003000  0.37667000  0.78247000  1.0
  O  O328  1  0.70493000  0.16847000  0.99387000  1.0
  O  O329  1  0.59793000  0.87997000  0.90387000  1.0
  O  O330  1  0.50510000  0.94500000  0.17840000  1.0
  O  O331  1  0.66780000  0.94560000  0.17180000  1.0
  O  O332  1  0.40590000  0.78370000  0.16150000  1.0
  O  O333  1  0.39380000  0.90180000  0.13540000  1.0
  O  O334  1  0.52050000  0.81900000  0.20570000  1.0
  O  O335  1  0.61500000  0.86040000  0.31190000  1.0
  O  O336  1  0.34570000  0.84220000  0.20740000  1.0
  O  O337  1  0.71250000  0.08710000  0.20790000  1.0
  O  O338  1  0.54440000  0.87880000  0.13340000  1.0
  O  O339  1  0.56030000  0.75340000  0.16510000  1.0
  O  O340  1  0.37800000  0.60400000  0.24520000  1.0
  O  O341  1  0.29000000  0.72670000  0.11580000  1.0
  O  O342  1  0.49820000  0.86980000  0.32720000  1.0
  O  O343  1  0.78670000  0.05130000  0.23720000  1.0
  O  O344  1  0.17177000  0.27833000  0.51173000  1.0
  O  O345  1  0.33447000  0.27893000  0.50513000  1.0
  O  O346  1  0.07257000  0.11703000  0.49483000  1.0
  O  O347  1  0.06047000  0.23513000  0.46873000  1.0
  O  O348  1  0.18717000  0.15233000  0.53903000  1.0
  O  O349  1  0.28167000  0.19373000  0.64523000  1.0
  O  O350  1  0.01237000  0.17553000  0.54073000  1.0
  O  O351  1  0.37917000  0.42043000  0.54123000  1.0
  O  O352  1  0.21107000  0.21213000  0.46673000  1.0
  O  O353  1  0.22697000  0.08673000  0.49843000  1.0
  O  O354  1  0.04467000  0.93733000  0.57853000  1.0
  O  O355  1  0.95667000  0.06003000  0.44913000  1.0
  O  O356  1  0.16487000  0.20313000  0.66053000  1.0
  O  O357  1  0.45337000  0.38463000  0.57053000  1.0
  O  O358  1  0.83843000  0.61167000  0.84507000  1.0
  O  O359  1  0.00113000  0.61227000  0.83847000  1.0
  O  O360  1  0.73923000  0.45037000  0.82817000  1.0
  O  O361  1  0.72713000  0.56847000  0.80207000  1.0
  O  O362  1  0.85383000  0.48567000  0.87237000  1.0
  O  O363  1  0.94833000  0.52707000  0.97857000  1.0
  O  O364  1  0.67903000  0.50887000  0.87407000  1.0
  O  O365  1  0.04583000  0.75377000  0.87457000  1.0
  O  O366  1  0.87773000  0.54547000  0.80007000  1.0
  O  O367  1  0.89363000  0.42007000  0.83177000  1.0
  O  O368  1  0.71133000  0.27067000  0.91187000  1.0
  O  O369  1  0.62333000  0.39337000  0.78247000  1.0
  O  O370  1  0.83153000  0.53647000  0.99387000  1.0
  O  O371  1  0.12003000  0.71797000  0.90387000  1.0
  O  O372  1  0.05500000  0.56010000  0.17840000  1.0
  O  O373  1  0.05440000  0.72220000  0.17180000  1.0
  O  O374  1  0.21630000  0.62220000  0.16150000  1.0
  O  O375  1  0.09820000  0.49200000  0.13540000  1.0
  O  O376  1  0.18100000  0.70150000  0.20570000  1.0
  O  O377  1  0.13960000  0.75460000  0.31190000  1.0
  O  O378  1  0.15780000  0.50350000  0.20740000  1.0
  O  O379  1  0.91290000  0.62540000  0.20790000  1.0
  O  O380  1  0.12120000  0.66560000  0.13340000  1.0
  O  O381  1  0.24660000  0.80690000  0.16510000  1.0
  O  O382  1  0.39600000  0.77400000  0.24520000  1.0
  O  O383  1  0.27330000  0.56330000  0.11580000  1.0
  O  O384  1  0.13020000  0.62840000  0.32720000  1.0
  O  O385  1  0.94870000  0.73540000  0.23720000  1.0
  O  O386  1  0.72167000  0.89343000  0.51173000  1.0
  O  O387  1  0.72107000  0.05553000  0.50513000  1.0
  O  O388  1  0.88297000  0.95553000  0.49483000  1.0
  O  O389  1  0.76487000  0.82533000  0.46873000  1.0
  O  O390  1  0.84767000  0.03483000  0.53903000  1.0
  O  O391  1  0.80627000  0.08793000  0.64523000  1.0
  O  O392  1  0.82447000  0.83683000  0.54073000  1.0
  O  O393  1  0.57957000  0.95873000  0.54123000  1.0
  O  O394  1  0.78787000  0.99893000  0.46673000  1.0
  O  O395  1  0.91327000  0.14023000  0.49843000  1.0
  O  O396  1  0.06267000  0.10733000  0.57853000  1.0
  O  O397  1  0.93997000  0.89663000  0.44913000  1.0
  O  O398  1  0.79687000  0.96173000  0.66053000  1.0
  O  O399  1  0.61537000  0.06873000  0.57053000  1.0
  O  O400  1  0.38833000  0.22677000  0.84507000  1.0
  O  O401  1  0.38773000  0.38887000  0.83847000  1.0
  O  O402  1  0.54963000  0.28887000  0.82817000  1.0
  O  O403  1  0.43153000  0.15867000  0.80207000  1.0
  O  O404  1  0.51433000  0.36817000  0.87237000  1.0
  O  O405  1  0.47293000  0.42127000  0.97857000  1.0
  O  O406  1  0.49113000  0.17017000  0.87407000  1.0
  O  O407  1  0.24623000  0.29207000  0.87457000  1.0
  O  O408  1  0.45453000  0.33227000  0.80007000  1.0
  O  O409  1  0.57993000  0.47357000  0.83177000  1.0
  O  O410  1  0.72933000  0.44067000  0.91187000  1.0
  O  O411  1  0.60663000  0.22997000  0.78247000  1.0
  O  O412  1  0.46353000  0.29507000  0.99387000  1.0
  O  O413  1  0.28203000  0.40207000  0.90387000  1.0
  O  O414  1  0.50510000  0.56010000  0.67840000  1.0
  O  O415  1  0.66780000  0.72220000  0.67180000  1.0
  O  O416  1  0.40590000  0.62220000  0.66150000  1.0
  O  O417  1  0.39380000  0.49200000  0.63540000  1.0
  O  O418  1  0.52050000  0.70150000  0.70570000  1.0
  O  O419  1  0.61500000  0.75460000  0.81190000  1.0
  O  O420  1  0.34570000  0.50350000  0.70740000  1.0
  O  O421  1  0.71250000  0.62540000  0.70790000  1.0
  O  O422  1  0.54440000  0.66560000  0.63340000  1.0
  O  O423  1  0.56030000  0.80690000  0.66510000  1.0
  O  O424  1  0.37800000  0.77400000  0.74520000  1.0
  O  O425  1  0.29000000  0.56330000  0.61580000  1.0
  O  O426  1  0.49820000  0.62840000  0.82720000  1.0
  O  O427  1  0.78670000  0.73540000  0.73720000  1.0
  O  O428  1  0.17177000  0.89343000  0.01173000  1.0
  O  O429  1  0.33447000  0.05553000  0.00513000  1.0
  O  O430  1  0.07257000  0.95553000  0.99483000  1.0
  O  O431  1  0.06047000  0.82533000  0.96873000  1.0
  O  O432  1  0.18717000  0.03483000  0.03903000  1.0
  O  O433  1  0.28167000  0.08793000  0.14523000  1.0
  O  O434  1  0.01237000  0.83683000  0.04073000  1.0
  O  O435  1  0.37917000  0.95873000  0.04123000  1.0
  O  O436  1  0.21107000  0.99893000  0.96673000  1.0
  O  O437  1  0.22697000  0.14023000  0.99843000  1.0
  O  O438  1  0.04467000  0.10733000  0.07853000  1.0
  O  O439  1  0.95667000  0.89663000  0.94913000  1.0
  O  O440  1  0.16487000  0.96173000  0.16053000  1.0
  O  O441  1  0.45337000  0.06873000  0.07053000  1.0
  O  O442  1  0.83843000  0.22677000  0.34507000  1.0
  O  O443  1  0.00113000  0.38887000  0.33847000  1.0
  O  O444  1  0.73923000  0.28887000  0.32817000  1.0
  O  O445  1  0.72713000  0.15867000  0.30207000  1.0
  O  O446  1  0.85383000  0.36817000  0.37237000  1.0
  O  O447  1  0.94833000  0.42127000  0.47857000  1.0
  O  O448  1  0.67903000  0.17017000  0.37407000  1.0
  O  O449  1  0.04583000  0.29207000  0.37457000  1.0
  O  O450  1  0.87773000  0.33227000  0.30007000  1.0
  O  O451  1  0.89363000  0.47357000  0.33177000  1.0
  O  O452  1  0.71133000  0.44067000  0.41187000  1.0
  O  O453  1  0.62333000  0.22997000  0.28247000  1.0
  O  O454  1  0.83153000  0.29507000  0.49387000  1.0
  O  O455  1  0.12003000  0.40207000  0.40387000  1.0
  O  O456  1  0.05500000  0.49490000  0.67840000  1.0
  O  O457  1  0.05440000  0.33220000  0.67180000  1.0
  O  O458  1  0.21630000  0.59410000  0.66150000  1.0
  O  O459  1  0.09820000  0.60620000  0.63540000  1.0
  O  O460  1  0.18100000  0.47950000  0.70570000  1.0
  O  O461  1  0.13960000  0.38500000  0.81190000  1.0
  O  O462  1  0.15780000  0.65430000  0.70740000  1.0
  O  O463  1  0.91290000  0.28750000  0.70790000  1.0
  O  O464  1  0.12120000  0.45560000  0.63340000  1.0
  O  O465  1  0.24660000  0.43970000  0.66510000  1.0
  O  O466  1  0.39600000  0.62200000  0.74520000  1.0
  O  O467  1  0.27330000  0.71000000  0.61580000  1.0
  O  O468  1  0.13020000  0.50180000  0.82720000  1.0
  O  O469  1  0.94870000  0.21330000  0.73720000  1.0
  O  O470  1  0.72167000  0.82823000  0.01173000  1.0
  O  O471  1  0.72107000  0.66553000  0.00513000  1.0
  O  O472  1  0.88297000  0.92743000  0.99483000  1.0
  O  O473  1  0.76487000  0.93953000  0.96873000  1.0
  O  O474  1  0.84767000  0.81283000  0.03903000  1.0
  O  O475  1  0.80627000  0.71833000  0.14523000  1.0
  O  O476  1  0.82447000  0.98763000  0.04073000  1.0
  O  O477  1  0.57957000  0.62083000  0.04123000  1.0
  O  O478  1  0.78787000  0.78893000  0.96673000  1.0
  O  O479  1  0.91327000  0.77303000  0.99843000  1.0
  O  O480  1  0.06267000  0.95533000  0.07853000  1.0
  O  O481  1  0.93997000  0.04333000  0.94913000  1.0
  O  O482  1  0.79687000  0.83513000  0.16053000  1.0
  O  O483  1  0.61537000  0.54663000  0.07053000  1.0
  O  O484  1  0.38833000  0.16157000  0.34507000  1.0
  O  O485  1  0.38773000  0.99887000  0.33847000  1.0
  O  O486  1  0.54963000  0.26077000  0.32817000  1.0
  O  O487  1  0.43153000  0.27287000  0.30207000  1.0
  O  O488  1  0.51433000  0.14617000  0.37237000  1.0
  O  O489  1  0.47293000  0.05167000  0.47857000  1.0
  O  O490  1  0.49113000  0.32097000  0.37407000  1.0
  O  O491  1  0.24623000  0.95417000  0.37457000  1.0
  O  O492  1  0.45453000  0.12227000  0.30007000  1.0
  O  O493  1  0.57993000  0.10637000  0.33177000  1.0
  O  O494  1  0.72933000  0.28867000  0.41187000  1.0
  O  O495  1  0.60663000  0.37667000  0.28247000  1.0
  O  O496  1  0.46353000  0.16847000  0.49387000  1.0
  O  O497  1  0.28203000  0.87997000  0.40387000  1.0
  O  O498  1  0.43990000  0.94500000  0.67840000  1.0
  O  O499  1  0.27780000  0.94560000  0.67180000  1.0
  O  O500  1  0.37780000  0.78370000  0.66150000  1.0
  O  O501  1  0.50800000  0.90180000  0.63540000  1.0
  O  O502  1  0.29850000  0.81900000  0.70570000  1.0
  O  O503  1  0.24540000  0.86040000  0.81190000  1.0
  O  O504  1  0.49650000  0.84220000  0.70740000  1.0
  O  O505  1  0.37460000  0.08710000  0.70790000  1.0
  O  O506  1  0.33440000  0.87880000  0.63340000  1.0
  O  O507  1  0.19310000  0.75340000  0.66510000  1.0
  O  O508  1  0.22600000  0.60400000  0.74520000  1.0
  O  O509  1  0.43670000  0.72670000  0.61580000  1.0
  O  O510  1  0.37160000  0.86980000  0.82720000  1.0
  O  O511  1  0.26460000  0.05130000  0.73720000  1.0
  O  O512  1  0.10657000  0.27833000  0.01173000  1.0
  O  O513  1  0.94447000  0.27893000  0.00513000  1.0
  O  O514  1  0.04447000  0.11703000  0.99483000  1.0
  O  O515  1  0.17467000  0.23513000  0.96873000  1.0
  O  O516  1  0.96517000  0.15233000  0.03903000  1.0
  O  O517  1  0.91207000  0.19373000  0.14523000  1.0
  O  O518  1  0.16317000  0.17553000  0.04073000  1.0
  O  O519  1  0.04127000  0.42043000  0.04123000  1.0
  O  O520  1  0.00107000  0.21213000  0.96673000  1.0
  O  O521  1  0.85977000  0.08673000  0.99843000  1.0
  O  O522  1  0.89267000  0.93733000  0.07853000  1.0
  O  O523  1  0.10337000  0.06003000  0.94913000  1.0
  O  O524  1  0.03827000  0.20313000  0.16053000  1.0
  O  O525  1  0.93127000  0.38463000  0.07053000  1.0
  O  O526  1  0.77323000  0.61167000  0.34507000  1.0
  O  O527  1  0.61113000  0.61227000  0.33847000  1.0
  O  O528  1  0.71113000  0.45037000  0.32817000  1.0
  O  O529  1  0.84133000  0.56847000  0.30207000  1.0
  O  O530  1  0.63183000  0.48567000  0.37237000  1.0
  O  O531  1  0.57873000  0.52707000  0.47857000  1.0
  O  O532  1  0.82983000  0.50887000  0.37407000  1.0
  O  O533  1  0.70793000  0.75377000  0.37457000  1.0
  O  O534  1  0.66773000  0.54547000  0.30007000  1.0
  O  O535  1  0.52643000  0.42007000  0.33177000  1.0
  O  O536  1  0.55933000  0.27067000  0.41187000  1.0
  O  O537  1  0.77003000  0.39337000  0.28247000  1.0
  O  O538  1  0.70493000  0.53647000  0.49387000  1.0
  O  O539  1  0.59793000  0.71797000  0.40387000  1.0
  O  O540  1  0.33333333  0.66666667  0.20680000  1.0
  O  O541  1  0.00000000  0.00000000  0.54013000  1.0
  O  O542  1  0.66666667  0.33333333  0.87347000  1.0
  O  O543  1  0.33333333  0.66666667  0.70680000  1.0
  O  O544  1  0.00000000  0.00000000  0.04013000  1.0
  O  O545  1  0.66666667  0.33333333  0.37347000  1.0
