# generated using pymatgen
data_Yb3H9W12C21N3O43
_symmetry_space_group_name_H-M   'P 1'
_cell_length_a   16.66060000
_cell_length_b   16.66060000
_cell_length_c   51.31600000
_cell_angle_alpha   90.00000000
_cell_angle_beta   90.00000000
_cell_angle_gamma   120.00000000
_symmetry_Int_Tables_number   1
_chemical_formula_structural   Yb3H9W12C21N3O43
_chemical_formula_sum   'Yb18 H54 W72 C126 N18 O258'
_cell_volume   12335.72569174
_cell_formula_units_Z   6
loop_
 _symmetry_equiv_pos_site_id
 _symmetry_equiv_pos_as_xyz
  1  'x, y, z'
loop_
 _atom_site_type_symbol
 _atom_site_label
 _atom_site_symmetry_multiplicity
 _atom_site_fract_x
 _atom_site_fract_y
 _atom_site_fract_z
 _atom_site_occupancy
  Yb  Yb0  1  0.11630000  0.77159000  0.07954000  1.0
  Yb  Yb1  1  0.78297000  0.10492000  0.41288000  1.0
  Yb  Yb2  1  0.44963000  0.43826000  0.74621000  1.0
  Yb  Yb3  1  0.22841000  0.34471000  0.07954000  1.0
  Yb  Yb4  1  0.89508000  0.67804000  0.41288000  1.0
  Yb  Yb5  1  0.56174000  0.01138000  0.74621000  1.0
  Yb  Yb6  1  0.65529000  0.88370000  0.07954000  1.0
  Yb  Yb7  1  0.32196000  0.21703000  0.41288000  1.0
  Yb  Yb8  1  0.98862000  0.55037000  0.74621000  1.0
  Yb  Yb9  1  0.22841000  0.88370000  0.57954000  1.0
  Yb  Yb10  1  0.89508000  0.21703000  0.91288000  1.0
  Yb  Yb11  1  0.56174000  0.55037000  0.24621000  1.0
  Yb  Yb12  1  0.65529000  0.77159000  0.57954000  1.0
  Yb  Yb13  1  0.32196000  0.10492000  0.91288000  1.0
  Yb  Yb14  1  0.98862000  0.43826000  0.24621000  1.0
  Yb  Yb15  1  0.11630000  0.34471000  0.57954000  1.0
  Yb  Yb16  1  0.78297000  0.67804000  0.91288000  1.0
  Yb  Yb17  1  0.44963000  0.01138000  0.24621000  1.0
  H  H18  1  0.49800000  0.06930000  0.97270000  1.0
  H  H19  1  0.27210000  0.95210000  0.01640000  1.0
  H  H20  1  0.49840000  0.93270000  0.03280000  1.0
  H  H21  1  0.16467000  0.40263000  0.30603000  1.0
  H  H22  1  0.93877000  0.28543000  0.34973000  1.0
  H  H23  1  0.16507000  0.26603000  0.36613000  1.0
  H  H24  1  0.83133000  0.73597000  0.63937000  1.0
  H  H25  1  0.60543000  0.61877000  0.68307000  1.0
  H  H26  1  0.83173000  0.59937000  0.69947000  1.0
  H  H27  1  0.93070000  0.42870000  0.97270000  1.0
  H  H28  1  0.04790000  0.32000000  0.01640000  1.0
  H  H29  1  0.06730000  0.56570000  0.03280000  1.0
  H  H30  1  0.59737000  0.76203000  0.30603000  1.0
  H  H31  1  0.71457000  0.65333000  0.34973000  1.0
  H  H32  1  0.73397000  0.89903000  0.36613000  1.0
  H  H33  1  0.26403000  0.09537000  0.63937000  1.0
  H  H34  1  0.38123000  0.98667000  0.68307000  1.0
  H  H35  1  0.40063000  0.23237000  0.69947000  1.0
  H  H36  1  0.57130000  0.50200000  0.97270000  1.0
  H  H37  1  0.68000000  0.72790000  0.01640000  1.0
  H  H38  1  0.43430000  0.50160000  0.03280000  1.0
  H  H39  1  0.23797000  0.83533000  0.30603000  1.0
  H  H40  1  0.34667000  0.06123000  0.34973000  1.0
  H  H41  1  0.10097000  0.83493000  0.36613000  1.0
  H  H42  1  0.90463000  0.16867000  0.63937000  1.0
  H  H43  1  0.01333000  0.39457000  0.68307000  1.0
  H  H44  1  0.76763000  0.16827000  0.69947000  1.0
  H  H45  1  0.93070000  0.50200000  0.47270000  1.0
  H  H46  1  0.04790000  0.72790000  0.51640000  1.0
  H  H47  1  0.06730000  0.50160000  0.53280000  1.0
  H  H48  1  0.59737000  0.83533000  0.80603000  1.0
  H  H49  1  0.71457000  0.06123000  0.84973000  1.0
  H  H50  1  0.73397000  0.83493000  0.86613000  1.0
  H  H51  1  0.26403000  0.16867000  0.13937000  1.0
  H  H52  1  0.38123000  0.39457000  0.18307000  1.0
  H  H53  1  0.40063000  0.16827000  0.19947000  1.0
  H  H54  1  0.57130000  0.06930000  0.47270000  1.0
  H  H55  1  0.68000000  0.95210000  0.51640000  1.0
  H  H56  1  0.43430000  0.93270000  0.53280000  1.0
  H  H57  1  0.23797000  0.40263000  0.80603000  1.0
  H  H58  1  0.34667000  0.28543000  0.84973000  1.0
  H  H59  1  0.10097000  0.26603000  0.86613000  1.0
  H  H60  1  0.90463000  0.73597000  0.13937000  1.0
  H  H61  1  0.01333000  0.61877000  0.18307000  1.0
  H  H62  1  0.76763000  0.59937000  0.19947000  1.0
  H  H63  1  0.49800000  0.42870000  0.47270000  1.0
  H  H64  1  0.27210000  0.32000000  0.51640000  1.0
  H  H65  1  0.49840000  0.56570000  0.53280000  1.0
  H  H66  1  0.16467000  0.76203000  0.80603000  1.0
  H  H67  1  0.93877000  0.65333000  0.84973000  1.0
  H  H68  1  0.16507000  0.89903000  0.86613000  1.0
  H  H69  1  0.83133000  0.09537000  0.13937000  1.0
  H  H70  1  0.60543000  0.98667000  0.18307000  1.0
  H  H71  1  0.83173000  0.23237000  0.19947000  1.0
  W  W72  1  0.74842000  0.47997000  0.02976000  1.0
  W  W73  1  0.70920000  0.56075000  0.08400000  1.0
  W  W74  1  0.88554000  0.52490000  0.07994000  1.0
  W  W75  1  0.80018000  0.39208000  0.14060000  1.0
  W  W76  1  0.41509000  0.81330000  0.36309000  1.0
  W  W77  1  0.37587000  0.89408000  0.41733000  1.0
  W  W78  1  0.55221000  0.85823000  0.41327000  1.0
  W  W79  1  0.46685000  0.72541000  0.47394000  1.0
  W  W80  1  0.08175000  0.14664000  0.69642000  1.0
  W  W81  1  0.04253000  0.22742000  0.75066000  1.0
  W  W82  1  0.21887000  0.19157000  0.74661000  1.0
  W  W83  1  0.13351000  0.05875000  0.80727000  1.0
  W  W84  1  0.52003000  0.26845000  0.02976000  1.0
  W  W85  1  0.43925000  0.14845000  0.08400000  1.0
  W  W86  1  0.47510000  0.36064000  0.07994000  1.0
  W  W87  1  0.60792000  0.40810000  0.14060000  1.0
  W  W88  1  0.18670000  0.60178000  0.36309000  1.0
  W  W89  1  0.10592000  0.48178000  0.41733000  1.0
  W  W90  1  0.14177000  0.69397000  0.41327000  1.0
  W  W91  1  0.27459000  0.74143000  0.47394000  1.0
  W  W92  1  0.85336000  0.93512000  0.69642000  1.0
  W  W93  1  0.77258000  0.81512000  0.75066000  1.0
  W  W94  1  0.80843000  0.02731000  0.74661000  1.0
  W  W95  1  0.94125000  0.07477000  0.80727000  1.0
  W  W96  1  0.73155000  0.25158000  0.02976000  1.0
  W  W97  1  0.85155000  0.29080000  0.08400000  1.0
  W  W98  1  0.63936000  0.11446000  0.07994000  1.0
  W  W99  1  0.59190000  0.19982000  0.14060000  1.0
  W  W100  1  0.39822000  0.58491000  0.36309000  1.0
  W  W101  1  0.51822000  0.62413000  0.41733000  1.0
  W  W102  1  0.30603000  0.44779000  0.41327000  1.0
  W  W103  1  0.25857000  0.53315000  0.47394000  1.0
  W  W104  1  0.06488000  0.91825000  0.69642000  1.0
  W  W105  1  0.18488000  0.95747000  0.75066000  1.0
  W  W106  1  0.97269000  0.78113000  0.74661000  1.0
  W  W107  1  0.92523000  0.86649000  0.80727000  1.0
  W  W108  1  0.52003000  0.25158000  0.52976000  1.0
  W  W109  1  0.43925000  0.29080000  0.58400000  1.0
  W  W110  1  0.47510000  0.11446000  0.57994000  1.0
  W  W111  1  0.60792000  0.19982000  0.64060000  1.0
  W  W112  1  0.18670000  0.58491000  0.86309000  1.0
  W  W113  1  0.10592000  0.62413000  0.91733000  1.0
  W  W114  1  0.14177000  0.44779000  0.91327000  1.0
  W  W115  1  0.27459000  0.53315000  0.97394000  1.0
  W  W116  1  0.85336000  0.91825000  0.19642000  1.0
  W  W117  1  0.77258000  0.95747000  0.25066000  1.0
  W  W118  1  0.80843000  0.78113000  0.24661000  1.0
  W  W119  1  0.94125000  0.86649000  0.30727000  1.0
  W  W120  1  0.73155000  0.47997000  0.52976000  1.0
  W  W121  1  0.85155000  0.56075000  0.58400000  1.0
  W  W122  1  0.63936000  0.52490000  0.57994000  1.0
  W  W123  1  0.59190000  0.39208000  0.64060000  1.0
  W  W124  1  0.39822000  0.81330000  0.86309000  1.0
  W  W125  1  0.51822000  0.89408000  0.91733000  1.0
  W  W126  1  0.30603000  0.85823000  0.91327000  1.0
  W  W127  1  0.25857000  0.72541000  0.97394000  1.0
  W  W128  1  0.06488000  0.14664000  0.19642000  1.0
  W  W129  1  0.18488000  0.22742000  0.25066000  1.0
  W  W130  1  0.97269000  0.19157000  0.24661000  1.0
  W  W131  1  0.92523000  0.05875000  0.30727000  1.0
  W  W132  1  0.74842000  0.26845000  0.52976000  1.0
  W  W133  1  0.70920000  0.14845000  0.58400000  1.0
  W  W134  1  0.88554000  0.36064000  0.57994000  1.0
  W  W135  1  0.80018000  0.40810000  0.64060000  1.0
  W  W136  1  0.41509000  0.60178000  0.86309000  1.0
  W  W137  1  0.37587000  0.48178000  0.91733000  1.0
  W  W138  1  0.55221000  0.69397000  0.91327000  1.0
  W  W139  1  0.46685000  0.74143000  0.97394000  1.0
  W  W140  1  0.08175000  0.93512000  0.19642000  1.0
  W  W141  1  0.04253000  0.81512000  0.25066000  1.0
  W  W142  1  0.21887000  0.02731000  0.24661000  1.0
  W  W143  1  0.13351000  0.07477000  0.30727000  1.0
  C  C144  1  0.37750000  0.94020000  0.02970000  1.0
  C  C145  1  0.38030000  0.01720000  0.99100000  1.0
  C  C146  1  0.46360000  0.02970000  0.98700000  1.0
  C  C147  1  0.33490000  0.96750000  0.01300000  1.0
  C  C148  1  0.46640000  0.95530000  0.02220000  1.0
  C  C149  1  0.33000000  0.04700000  0.97230000  1.0
  C  C150  1  0.32910000  0.88360000  0.05380000  1.0
  C  C151  1  0.04417000  0.27353000  0.36303000  1.0
  C  C152  1  0.04697000  0.35053000  0.32433000  1.0
  C  C153  1  0.13027000  0.36303000  0.32033000  1.0
  C  C154  1  0.00157000  0.30083000  0.34633000  1.0
  C  C155  1  0.13307000  0.28863000  0.35553000  1.0
  C  C156  1  0.99667000  0.38033000  0.30563000  1.0
  C  C157  1  0.99577000  0.21693000  0.38713000  1.0
  C  C158  1  0.71083000  0.60687000  0.69637000  1.0
  C  C159  1  0.71363000  0.68387000  0.65767000  1.0
  C  C160  1  0.79693000  0.69637000  0.65367000  1.0
  C  C161  1  0.66823000  0.63417000  0.67967000  1.0
  C  C162  1  0.79973000  0.62197000  0.68887000  1.0
  C  C163  1  0.66333000  0.71367000  0.63897000  1.0
  C  C164  1  0.66243000  0.55027000  0.72047000  1.0
  C  C165  1  0.05980000  0.43730000  0.02970000  1.0
  C  C166  1  0.98280000  0.36310000  0.99100000  1.0
  C  C167  1  0.97030000  0.43390000  0.98700000  1.0
  C  C168  1  0.03250000  0.36740000  0.01300000  1.0
  C  C169  1  0.04470000  0.51110000  0.02220000  1.0
  C  C170  1  0.95300000  0.28300000  0.97230000  1.0
  C  C171  1  0.11640000  0.44550000  0.05380000  1.0
  C  C172  1  0.72647000  0.77063000  0.36303000  1.0
  C  C173  1  0.64947000  0.69643000  0.32433000  1.0
  C  C174  1  0.63697000  0.76723000  0.32033000  1.0
  C  C175  1  0.69917000  0.70073000  0.34633000  1.0
  C  C176  1  0.71137000  0.84443000  0.35553000  1.0
  C  C177  1  0.61967000  0.61633000  0.30563000  1.0
  C  C178  1  0.78307000  0.77883000  0.38713000  1.0
  C  C179  1  0.39313000  0.10397000  0.69637000  1.0
  C  C180  1  0.31613000  0.02977000  0.65767000  1.0
  C  C181  1  0.30363000  0.10057000  0.65367000  1.0
  C  C182  1  0.36583000  0.03407000  0.67967000  1.0
  C  C183  1  0.37803000  0.17777000  0.68887000  1.0
  C  C184  1  0.28633000  0.94967000  0.63897000  1.0
  C  C185  1  0.44973000  0.11217000  0.72047000  1.0
  C  C186  1  0.56270000  0.62250000  0.02970000  1.0
  C  C187  1  0.63690000  0.61970000  0.99100000  1.0
  C  C188  1  0.56610000  0.53640000  0.98700000  1.0
  C  C189  1  0.63260000  0.66510000  0.01300000  1.0
  C  C190  1  0.48890000  0.53360000  0.02220000  1.0
  C  C191  1  0.71700000  0.67000000  0.97230000  1.0
  C  C192  1  0.55450000  0.67090000  0.05380000  1.0
  C  C193  1  0.22937000  0.95583000  0.36303000  1.0
  C  C194  1  0.30357000  0.95303000  0.32433000  1.0
  C  C195  1  0.23277000  0.86973000  0.32033000  1.0
  C  C196  1  0.29927000  0.99843000  0.34633000  1.0
  C  C197  1  0.15557000  0.86693000  0.35553000  1.0
  C  C198  1  0.38367000  0.00333000  0.30563000  1.0
  C  C199  1  0.22117000  0.00423000  0.38713000  1.0
  C  C200  1  0.89603000  0.28917000  0.69637000  1.0
  C  C201  1  0.97023000  0.28637000  0.65767000  1.0
  C  C202  1  0.89943000  0.20307000  0.65367000  1.0
  C  C203  1  0.96593000  0.33177000  0.67967000  1.0
  C  C204  1  0.82223000  0.20027000  0.68887000  1.0
  C  C205  1  0.05033000  0.33667000  0.63897000  1.0
  C  C206  1  0.88783000  0.33757000  0.72047000  1.0
  C  C207  1  0.05980000  0.62250000  0.52970000  1.0
  C  C208  1  0.98280000  0.61970000  0.49100000  1.0
  C  C209  1  0.97030000  0.53640000  0.48700000  1.0
  C  C210  1  0.03250000  0.66510000  0.51300000  1.0
  C  C211  1  0.04470000  0.53360000  0.52220000  1.0
  C  C212  1  0.95300000  0.67000000  0.47230000  1.0
  C  C213  1  0.11640000  0.67090000  0.55380000  1.0
  C  C214  1  0.72647000  0.95583000  0.86303000  1.0
  C  C215  1  0.64947000  0.95303000  0.82433000  1.0
  C  C216  1  0.63697000  0.86973000  0.82033000  1.0
  C  C217  1  0.69917000  0.99843000  0.84633000  1.0
  C  C218  1  0.71137000  0.86693000  0.85553000  1.0
  C  C219  1  0.61967000  0.00333000  0.80563000  1.0
  C  C220  1  0.78307000  0.00423000  0.88713000  1.0
  C  C221  1  0.39313000  0.28917000  0.19637000  1.0
  C  C222  1  0.31613000  0.28637000  0.15767000  1.0
  C  C223  1  0.30363000  0.20307000  0.15367000  1.0
  C  C224  1  0.36583000  0.33177000  0.17967000  1.0
  C  C225  1  0.37803000  0.20027000  0.18887000  1.0
  C  C226  1  0.28633000  0.33667000  0.13897000  1.0
  C  C227  1  0.44973000  0.33757000  0.22047000  1.0
  C  C228  1  0.56270000  0.94020000  0.52970000  1.0
  C  C229  1  0.63690000  0.01720000  0.49100000  1.0
  C  C230  1  0.56610000  0.02970000  0.48700000  1.0
  C  C231  1  0.63260000  0.96750000  0.51300000  1.0
  C  C232  1  0.48890000  0.95530000  0.52220000  1.0
  C  C233  1  0.71700000  0.04700000  0.47230000  1.0
  C  C234  1  0.55450000  0.88360000  0.55380000  1.0
  C  C235  1  0.22937000  0.27353000  0.86303000  1.0
  C  C236  1  0.30357000  0.35053000  0.82433000  1.0
  C  C237  1  0.23277000  0.36303000  0.82033000  1.0
  C  C238  1  0.29927000  0.30083000  0.84633000  1.0
  C  C239  1  0.15557000  0.28863000  0.85553000  1.0
  C  C240  1  0.38367000  0.38033000  0.80563000  1.0
  C  C241  1  0.22117000  0.21693000  0.88713000  1.0
  C  C242  1  0.89603000  0.60687000  0.19637000  1.0
  C  C243  1  0.97023000  0.68387000  0.15767000  1.0
  C  C244  1  0.89943000  0.69637000  0.15367000  1.0
  C  C245  1  0.96593000  0.63417000  0.17967000  1.0
  C  C246  1  0.82223000  0.62197000  0.18887000  1.0
  C  C247  1  0.05033000  0.71367000  0.13897000  1.0
  C  C248  1  0.88783000  0.55027000  0.22047000  1.0
  C  C249  1  0.37750000  0.43730000  0.52970000  1.0
  C  C250  1  0.38030000  0.36310000  0.49100000  1.0
  C  C251  1  0.46360000  0.43390000  0.48700000  1.0
  C  C252  1  0.33490000  0.36740000  0.51300000  1.0
  C  C253  1  0.46640000  0.51110000  0.52220000  1.0
  C  C254  1  0.33000000  0.28300000  0.47230000  1.0
  C  C255  1  0.32910000  0.44550000  0.55380000  1.0
  C  C256  1  0.04417000  0.77063000  0.86303000  1.0
  C  C257  1  0.04697000  0.69643000  0.82433000  1.0
  C  C258  1  0.13027000  0.76723000  0.82033000  1.0
  C  C259  1  0.00157000  0.70073000  0.84633000  1.0
  C  C260  1  0.13307000  0.84443000  0.85553000  1.0
  C  C261  1  0.99667000  0.61633000  0.80563000  1.0
  C  C262  1  0.99577000  0.77883000  0.88713000  1.0
  C  C263  1  0.71083000  0.10397000  0.19637000  1.0
  C  C264  1  0.71363000  0.02977000  0.15767000  1.0
  C  C265  1  0.79693000  0.10057000  0.15367000  1.0
  C  C266  1  0.66823000  0.03407000  0.17967000  1.0
  C  C267  1  0.79973000  0.17777000  0.18887000  1.0
  C  C268  1  0.66333000  0.94967000  0.13897000  1.0
  C  C269  1  0.66243000  0.11217000  0.22047000  1.0
  N  N270  1  0.50380000  0.99510000  0.99750000  1.0
  N  N271  1  0.17047000  0.32843000  0.33083000  1.0
  N  N272  1  0.83713000  0.66177000  0.66417000  1.0
  N  N273  1  0.00490000  0.50870000  0.99750000  1.0
  N  N274  1  0.67157000  0.84203000  0.33083000  1.0
  N  N275  1  0.33823000  0.17537000  0.66417000  1.0
  N  N276  1  0.49130000  0.49620000  0.99750000  1.0
  N  N277  1  0.15797000  0.82953000  0.33083000  1.0
  N  N278  1  0.82463000  0.16287000  0.66417000  1.0
  N  N279  1  0.00490000  0.49620000  0.49750000  1.0
  N  N280  1  0.67157000  0.82953000  0.83083000  1.0
  N  N281  1  0.33823000  0.16287000  0.16417000  1.0
  N  N282  1  0.49130000  0.99510000  0.49750000  1.0
  N  N283  1  0.15797000  0.32843000  0.83083000  1.0
  N  N284  1  0.82463000  0.66177000  0.16417000  1.0
  N  N285  1  0.50380000  0.50870000  0.49750000  1.0
  N  N286  1  0.17047000  0.84203000  0.83083000  1.0
  N  N287  1  0.83713000  0.17537000  0.16417000  1.0
  O  O288  1  0.58000000  0.47240000  0.07660000  1.0
  O  O289  1  0.87790000  0.54780000  0.04370000  1.0
  O  O290  1  0.68040000  0.51070000  0.11800000  1.0
  O  O291  1  0.72770000  0.56970000  0.04600000  1.0
  O  O292  1  0.73140000  0.44230000  0.15580000  1.0
  O  O293  1  0.83860000  0.61120000  0.08800000  1.0
  O  O294  1  0.24570000  0.85820000  0.05640000  1.0
  O  O295  1  0.00230000  0.61410000  0.08240000  1.0
  O  O296  1  0.37430000  0.08910000  0.95190000  1.0
  O  O297  1  0.37140000  0.86700000  0.07180000  1.0
  O  O298  1  0.73940000  0.45080000  0.07250000  1.0
  O  O299  1  0.26030000  0.05100000  0.98240000  1.0
  O  O300  1  0.77180000  0.37850000  0.02720000  1.0
  O  O301  1  0.85430000  0.48420000  0.11680000  1.0
  O  O302  1  0.24667000  0.80573000  0.40993000  1.0
  O  O303  1  0.54457000  0.88113000  0.37703000  1.0
  O  O304  1  0.34707000  0.84403000  0.45133000  1.0
  O  O305  1  0.39437000  0.90303000  0.37933000  1.0
  O  O306  1  0.39807000  0.77563000  0.48913000  1.0
  O  O307  1  0.50527000  0.94453000  0.42133000  1.0
  O  O308  1  0.91237000  0.19153000  0.38973000  1.0
  O  O309  1  0.66897000  0.94743000  0.41573000  1.0
  O  O310  1  0.04097000  0.42243000  0.28523000  1.0
  O  O311  1  0.03807000  0.20033000  0.40513000  1.0
  O  O312  1  0.40607000  0.78413000  0.40583000  1.0
  O  O313  1  0.92697000  0.38433000  0.31573000  1.0
  O  O314  1  0.43847000  0.71183000  0.36053000  1.0
  O  O315  1  0.52097000  0.81753000  0.45013000  1.0
  O  O316  1  0.91333000  0.13907000  0.74327000  1.0
  O  O317  1  0.21123000  0.21447000  0.71037000  1.0
  O  O318  1  0.01373000  0.17737000  0.78467000  1.0
  O  O319  1  0.06103000  0.23637000  0.71267000  1.0
  O  O320  1  0.06473000  0.10897000  0.82247000  1.0
  O  O321  1  0.17193000  0.27787000  0.75467000  1.0
  O  O322  1  0.57903000  0.52487000  0.72307000  1.0
  O  O323  1  0.33563000  0.28077000  0.74907000  1.0
  O  O324  1  0.70763000  0.75577000  0.61857000  1.0
  O  O325  1  0.70473000  0.53367000  0.73847000  1.0
  O  O326  1  0.07273000  0.11747000  0.73917000  1.0
  O  O327  1  0.59363000  0.71767000  0.64907000  1.0
  O  O328  1  0.10513000  0.04517000  0.69387000  1.0
  O  O329  1  0.18763000  0.15087000  0.78347000  1.0
  O  O330  1  0.52760000  0.10760000  0.07660000  1.0
  O  O331  1  0.45220000  0.33010000  0.04370000  1.0
  O  O332  1  0.48930000  0.16970000  0.11800000  1.0
  O  O333  1  0.43030000  0.15800000  0.04600000  1.0
  O  O334  1  0.55770000  0.28910000  0.15580000  1.0
  O  O335  1  0.38880000  0.22740000  0.08800000  1.0
  O  O336  1  0.14180000  0.38750000  0.05640000  1.0
  O  O337  1  0.38590000  0.38820000  0.08240000  1.0
  O  O338  1  0.91090000  0.28520000  0.95190000  1.0
  O  O339  1  0.13300000  0.50440000  0.07180000  1.0
  O  O340  1  0.54920000  0.28860000  0.07250000  1.0
  O  O341  1  0.94900000  0.20930000  0.98240000  1.0
  O  O342  1  0.62150000  0.39330000  0.02720000  1.0
  O  O343  1  0.51580000  0.37010000  0.11680000  1.0
  O  O344  1  0.19427000  0.44093000  0.40993000  1.0
  O  O345  1  0.11887000  0.66343000  0.37703000  1.0
  O  O346  1  0.15597000  0.50303000  0.45133000  1.0
  O  O347  1  0.09697000  0.49133000  0.37933000  1.0
  O  O348  1  0.22437000  0.62243000  0.48913000  1.0
  O  O349  1  0.05547000  0.56073000  0.42133000  1.0
  O  O350  1  0.80847000  0.72083000  0.38973000  1.0
  O  O351  1  0.05257000  0.72153000  0.41573000  1.0
  O  O352  1  0.57757000  0.61853000  0.28523000  1.0
  O  O353  1  0.79967000  0.83773000  0.40513000  1.0
  O  O354  1  0.21587000  0.62193000  0.40583000  1.0
  O  O355  1  0.61567000  0.54263000  0.31573000  1.0
  O  O356  1  0.28817000  0.72663000  0.36053000  1.0
  O  O357  1  0.18247000  0.70343000  0.45013000  1.0
  O  O358  1  0.86093000  0.77427000  0.74327000  1.0
  O  O359  1  0.78553000  0.99677000  0.71037000  1.0
  O  O360  1  0.82263000  0.83637000  0.78467000  1.0
  O  O361  1  0.76363000  0.82467000  0.71267000  1.0
  O  O362  1  0.89103000  0.95577000  0.82247000  1.0
  O  O363  1  0.72213000  0.89407000  0.75467000  1.0
  O  O364  1  0.47513000  0.05417000  0.72307000  1.0
  O  O365  1  0.71923000  0.05487000  0.74907000  1.0
  O  O366  1  0.24423000  0.95187000  0.61857000  1.0
  O  O367  1  0.46633000  0.17107000  0.73847000  1.0
  O  O368  1  0.88253000  0.95527000  0.73917000  1.0
  O  O369  1  0.28233000  0.87597000  0.64907000  1.0
  O  O370  1  0.95483000  0.05997000  0.69387000  1.0
  O  O371  1  0.84913000  0.03677000  0.78347000  1.0
  O  O372  1  0.89240000  0.42000000  0.07660000  1.0
  O  O373  1  0.66990000  0.12210000  0.04370000  1.0
  O  O374  1  0.83030000  0.31960000  0.11800000  1.0
  O  O375  1  0.84200000  0.27230000  0.04600000  1.0
  O  O376  1  0.71090000  0.26860000  0.15580000  1.0
  O  O377  1  0.77260000  0.16140000  0.08800000  1.0
  O  O378  1  0.61250000  0.75430000  0.05640000  1.0
  O  O379  1  0.61180000  0.99770000  0.08240000  1.0
  O  O380  1  0.71480000  0.62570000  0.95190000  1.0
  O  O381  1  0.49560000  0.62860000  0.07180000  1.0
  O  O382  1  0.71140000  0.26060000  0.07250000  1.0
  O  O383  1  0.79070000  0.73970000  0.98240000  1.0
  O  O384  1  0.60670000  0.22820000  0.02720000  1.0
  O  O385  1  0.62990000  0.14570000  0.11680000  1.0
  O  O386  1  0.55907000  0.75333000  0.40993000  1.0
  O  O387  1  0.33657000  0.45543000  0.37703000  1.0
  O  O388  1  0.49697000  0.65293000  0.45133000  1.0
  O  O389  1  0.50867000  0.60563000  0.37933000  1.0
  O  O390  1  0.37757000  0.60193000  0.48913000  1.0
  O  O391  1  0.43927000  0.49473000  0.42133000  1.0
  O  O392  1  0.27917000  0.08763000  0.38973000  1.0
  O  O393  1  0.27847000  0.33103000  0.41573000  1.0
  O  O394  1  0.38147000  0.95903000  0.28523000  1.0
  O  O395  1  0.16227000  0.96193000  0.40513000  1.0
  O  O396  1  0.37807000  0.59393000  0.40583000  1.0
  O  O397  1  0.45737000  0.07303000  0.31573000  1.0
  O  O398  1  0.27337000  0.56153000  0.36053000  1.0
  O  O399  1  0.29657000  0.47903000  0.45013000  1.0
  O  O400  1  0.22573000  0.08667000  0.74327000  1.0
  O  O401  1  0.00323000  0.78877000  0.71037000  1.0
  O  O402  1  0.16363000  0.98627000  0.78467000  1.0
  O  O403  1  0.17533000  0.93897000  0.71267000  1.0
  O  O404  1  0.04423000  0.93527000  0.82247000  1.0
  O  O405  1  0.10593000  0.82807000  0.75467000  1.0
  O  O406  1  0.94583000  0.42097000  0.72307000  1.0
  O  O407  1  0.94513000  0.66437000  0.74907000  1.0
  O  O408  1  0.04813000  0.29237000  0.61857000  1.0
  O  O409  1  0.82893000  0.29527000  0.73847000  1.0
  O  O410  1  0.04473000  0.92727000  0.73917000  1.0
  O  O411  1  0.12403000  0.40637000  0.64907000  1.0
  O  O412  1  0.94003000  0.89487000  0.69387000  1.0
  O  O413  1  0.96323000  0.81237000  0.78347000  1.0
  O  O414  1  0.52760000  0.42000000  0.57660000  1.0
  O  O415  1  0.45220000  0.12210000  0.54370000  1.0
  O  O416  1  0.48930000  0.31960000  0.61800000  1.0
  O  O417  1  0.43030000  0.27230000  0.54600000  1.0
  O  O418  1  0.55770000  0.26860000  0.65580000  1.0
  O  O419  1  0.38880000  0.16140000  0.58800000  1.0
  O  O420  1  0.14180000  0.75430000  0.55640000  1.0
  O  O421  1  0.38590000  0.99770000  0.58240000  1.0
  O  O422  1  0.91090000  0.62570000  0.45190000  1.0
  O  O423  1  0.13300000  0.62860000  0.57180000  1.0
  O  O424  1  0.54920000  0.26060000  0.57250000  1.0
  O  O425  1  0.94900000  0.73970000  0.48240000  1.0
  O  O426  1  0.62150000  0.22820000  0.52720000  1.0
  O  O427  1  0.51580000  0.14570000  0.61680000  1.0
  O  O428  1  0.19427000  0.75333000  0.90993000  1.0
  O  O429  1  0.11887000  0.45543000  0.87703000  1.0
  O  O430  1  0.15597000  0.65293000  0.95133000  1.0
  O  O431  1  0.09697000  0.60563000  0.87933000  1.0
  O  O432  1  0.22437000  0.60193000  0.98913000  1.0
  O  O433  1  0.05547000  0.49473000  0.92133000  1.0
  O  O434  1  0.80847000  0.08763000  0.88973000  1.0
  O  O435  1  0.05257000  0.33103000  0.91573000  1.0
  O  O436  1  0.57757000  0.95903000  0.78523000  1.0
  O  O437  1  0.79967000  0.96193000  0.90513000  1.0
  O  O438  1  0.21587000  0.59393000  0.90583000  1.0
  O  O439  1  0.61567000  0.07303000  0.81573000  1.0
  O  O440  1  0.28817000  0.56153000  0.86053000  1.0
  O  O441  1  0.18247000  0.47903000  0.95013000  1.0
  O  O442  1  0.86093000  0.08667000  0.24327000  1.0
  O  O443  1  0.78553000  0.78877000  0.21037000  1.0
  O  O444  1  0.82263000  0.98627000  0.28467000  1.0
  O  O445  1  0.76363000  0.93897000  0.21267000  1.0
  O  O446  1  0.89103000  0.93527000  0.32247000  1.0
  O  O447  1  0.72213000  0.82807000  0.25467000  1.0
  O  O448  1  0.47513000  0.42097000  0.22307000  1.0
  O  O449  1  0.71923000  0.66437000  0.24907000  1.0
  O  O450  1  0.24423000  0.29237000  0.11857000  1.0
  O  O451  1  0.46633000  0.29527000  0.23847000  1.0
  O  O452  1  0.88253000  0.92727000  0.23917000  1.0
  O  O453  1  0.28233000  0.40637000  0.14907000  1.0
  O  O454  1  0.95483000  0.89487000  0.19387000  1.0
  O  O455  1  0.84913000  0.81237000  0.28347000  1.0
  O  O456  1  0.89240000  0.47240000  0.57660000  1.0
  O  O457  1  0.66990000  0.54780000  0.54370000  1.0
  O  O458  1  0.83030000  0.51070000  0.61800000  1.0
  O  O459  1  0.84200000  0.56970000  0.54600000  1.0
  O  O460  1  0.71090000  0.44230000  0.65580000  1.0
  O  O461  1  0.77260000  0.61120000  0.58800000  1.0
  O  O462  1  0.61250000  0.85820000  0.55640000  1.0
  O  O463  1  0.61180000  0.61410000  0.58240000  1.0
  O  O464  1  0.71480000  0.08910000  0.45190000  1.0
  O  O465  1  0.49560000  0.86700000  0.57180000  1.0
  O  O466  1  0.71140000  0.45080000  0.57250000  1.0
  O  O467  1  0.79070000  0.05100000  0.48240000  1.0
  O  O468  1  0.60670000  0.37850000  0.52720000  1.0
  O  O469  1  0.62990000  0.48420000  0.61680000  1.0
  O  O470  1  0.55907000  0.80573000  0.90993000  1.0
  O  O471  1  0.33657000  0.88113000  0.87703000  1.0
  O  O472  1  0.49697000  0.84403000  0.95133000  1.0
  O  O473  1  0.50867000  0.90303000  0.87933000  1.0
  O  O474  1  0.37757000  0.77563000  0.98913000  1.0
  O  O475  1  0.43927000  0.94453000  0.92133000  1.0
  O  O476  1  0.27917000  0.19153000  0.88973000  1.0
  O  O477  1  0.27847000  0.94743000  0.91573000  1.0
  O  O478  1  0.38147000  0.42243000  0.78523000  1.0
  O  O479  1  0.16227000  0.20033000  0.90513000  1.0
  O  O480  1  0.37807000  0.78413000  0.90583000  1.0
  O  O481  1  0.45737000  0.38433000  0.81573000  1.0
  O  O482  1  0.27337000  0.71183000  0.86053000  1.0
  O  O483  1  0.29657000  0.81753000  0.95013000  1.0
  O  O484  1  0.22573000  0.13907000  0.24327000  1.0
  O  O485  1  0.00323000  0.21447000  0.21037000  1.0
  O  O486  1  0.16363000  0.17737000  0.28467000  1.0
  O  O487  1  0.17533000  0.23637000  0.21267000  1.0
  O  O488  1  0.04423000  0.10897000  0.32247000  1.0
  O  O489  1  0.10593000  0.27787000  0.25467000  1.0
  O  O490  1  0.94583000  0.52487000  0.22307000  1.0
  O  O491  1  0.94513000  0.28077000  0.24907000  1.0
  O  O492  1  0.04813000  0.75577000  0.11857000  1.0
  O  O493  1  0.82893000  0.53367000  0.23847000  1.0
  O  O494  1  0.04473000  0.11747000  0.23917000  1.0
  O  O495  1  0.12403000  0.71767000  0.14907000  1.0
  O  O496  1  0.94003000  0.04517000  0.19387000  1.0
  O  O497  1  0.96323000  0.15087000  0.28347000  1.0
  O  O498  1  0.58000000  0.10760000  0.57660000  1.0
  O  O499  1  0.87790000  0.33010000  0.54370000  1.0
  O  O500  1  0.68040000  0.16970000  0.61800000  1.0
  O  O501  1  0.72770000  0.15800000  0.54600000  1.0
  O  O502  1  0.73140000  0.28910000  0.65580000  1.0
  O  O503  1  0.83860000  0.22740000  0.58800000  1.0
  O  O504  1  0.24570000  0.38750000  0.55640000  1.0
  O  O505  1  0.00230000  0.38820000  0.58240000  1.0
  O  O506  1  0.37430000  0.28520000  0.45190000  1.0
  O  O507  1  0.37140000  0.50440000  0.57180000  1.0
  O  O508  1  0.73940000  0.28860000  0.57250000  1.0
  O  O509  1  0.26030000  0.20930000  0.48240000  1.0
  O  O510  1  0.77180000  0.39330000  0.52720000  1.0
  O  O511  1  0.85430000  0.37010000  0.61680000  1.0
  O  O512  1  0.24667000  0.44093000  0.90993000  1.0
  O  O513  1  0.54457000  0.66343000  0.87703000  1.0
  O  O514  1  0.34707000  0.50303000  0.95133000  1.0
  O  O515  1  0.39437000  0.49133000  0.87933000  1.0
  O  O516  1  0.39807000  0.62243000  0.98913000  1.0
  O  O517  1  0.50527000  0.56073000  0.92133000  1.0
  O  O518  1  0.91237000  0.72083000  0.88973000  1.0
  O  O519  1  0.66897000  0.72153000  0.91573000  1.0
  O  O520  1  0.04097000  0.61853000  0.78523000  1.0
  O  O521  1  0.03807000  0.83773000  0.90513000  1.0
  O  O522  1  0.40607000  0.62193000  0.90583000  1.0
  O  O523  1  0.92697000  0.54263000  0.81573000  1.0
  O  O524  1  0.43847000  0.72663000  0.86053000  1.0
  O  O525  1  0.52097000  0.70343000  0.95013000  1.0
  O  O526  1  0.91333000  0.77427000  0.24327000  1.0
  O  O527  1  0.21123000  0.99677000  0.21037000  1.0
  O  O528  1  0.01373000  0.83637000  0.28467000  1.0
  O  O529  1  0.06103000  0.82467000  0.21267000  1.0
  O  O530  1  0.06473000  0.95577000  0.32247000  1.0
  O  O531  1  0.17193000  0.89407000  0.25467000  1.0
  O  O532  1  0.57903000  0.05417000  0.22307000  1.0
  O  O533  1  0.33563000  0.05487000  0.24907000  1.0
  O  O534  1  0.70763000  0.95187000  0.11857000  1.0
  O  O535  1  0.70473000  0.17107000  0.23847000  1.0
  O  O536  1  0.07273000  0.95527000  0.23917000  1.0
  O  O537  1  0.59363000  0.87597000  0.14907000  1.0
  O  O538  1  0.10513000  0.05997000  0.19387000  1.0
  O  O539  1  0.18763000  0.03677000  0.28347000  1.0
  O  O540  1  0.66666667  0.33333333  0.11600000  1.0
  O  O541  1  0.33333333  0.66666667  0.44933000  1.0
  O  O542  1  0.00000000  0.00000000  0.78267000  1.0
  O  O543  1  0.66666667  0.33333333  0.61600000  1.0
  O  O544  1  0.33333333  0.66666667  0.94933000  1.0
  O  O545  1  0.00000000  0.00000000  0.28267000  1.0
