# generated using pymatgen
data_Ti2Zn6H42C79N2O33
_symmetry_space_group_name_H-M   'P 1'
_cell_length_a   20.17100000
_cell_length_b   20.17100000
_cell_length_c   26.19700000
_cell_angle_alpha   90.00000000
_cell_angle_beta   90.00000000
_cell_angle_gamma   120.00000000
_symmetry_Int_Tables_number   1
_chemical_formula_structural   Ti2Zn6H42C79N2O33
_chemical_formula_sum   'Ti4 Zn12 H84 C158 N4 O66'
_cell_volume   9230.75130929
_cell_formula_units_Z   2
loop_
 _symmetry_equiv_pos_site_id
 _symmetry_equiv_pos_as_xyz
  1  'x, y, z'
loop_
 _atom_site_type_symbol
 _atom_site_label
 _atom_site_symmetry_multiplicity
 _atom_site_fract_x
 _atom_site_fract_y
 _atom_site_fract_z
 _atom_site_occupancy
  Ti  Ti0  1  0.33333333  0.66666667  0.59294000  1.0
  Ti  Ti1  1  0.66666667  0.33333333  0.09294000  1.0
  Ti  Ti2  1  0.66666667  0.33333333  0.40706000  1.0
  Ti  Ti3  1  0.33333333  0.66666667  0.90706000  1.0
  Zn  Zn4  1  0.00000000  0.00000000  0.62405000  1.0
  Zn  Zn5  1  0.00000000  0.00000000  0.12405000  1.0
  Zn  Zn6  1  0.00000000  0.00000000  0.37595000  1.0
  Zn  Zn7  1  0.00000000  0.00000000  0.87595000  1.0
  Zn  Zn8  1  0.00000000  0.00000000  0.50000000  1.0
  Zn  Zn9  1  0.00000000  0.00000000  0.00000000  1.0
  Zn  Zn10  1  0.37811000  0.56537000  0.75000000  1.0
  Zn  Zn11  1  0.43463000  0.81274000  0.75000000  1.0
  Zn  Zn12  1  0.18726000  0.62189000  0.75000000  1.0
  Zn  Zn13  1  0.62189000  0.43463000  0.25000000  1.0
  Zn  Zn14  1  0.56537000  0.18726000  0.25000000  1.0
  Zn  Zn15  1  0.81274000  0.37811000  0.25000000  1.0
  H  H16  1  0.14250000  0.24640000  0.62640000  1.0
  H  H17  1  0.23280000  0.38000000  0.65170000  1.0
  H  H18  1  0.18050000  0.46910000  0.50040000  1.0
  H  H19  1  0.09170000  0.33290000  0.47330000  1.0
  H  H20  1  0.03080000  0.20450000  0.49100000  1.0
  H  H21  1  0.99180000  0.89560000  0.70760000  1.0
  H  H22  1  0.91020000  0.89130000  0.70750000  1.0
  H  H23  1  0.75360000  0.89610000  0.62640000  1.0
  H  H24  1  0.62000000  0.85280000  0.65170000  1.0
  H  H25  1  0.53090000  0.71140000  0.50040000  1.0
  H  H26  1  0.66710000  0.75880000  0.47330000  1.0
  H  H27  1  0.79550000  0.82630000  0.49100000  1.0
  H  H28  1  0.10440000  0.09620000  0.70760000  1.0
  H  H29  1  0.10870000  0.01890000  0.70750000  1.0
  H  H30  1  0.10390000  0.85750000  0.62640000  1.0
  H  H31  1  0.14720000  0.76720000  0.65170000  1.0
  H  H32  1  0.28860000  0.81950000  0.50040000  1.0
  H  H33  1  0.24120000  0.90830000  0.47330000  1.0
  H  H34  1  0.17370000  0.96920000  0.49100000  1.0
  H  H35  1  0.90380000  0.00820000  0.70760000  1.0
  H  H36  1  0.98110000  0.08980000  0.70750000  1.0
  H  H37  1  0.85750000  0.75360000  0.12640000  1.0
  H  H38  1  0.76720000  0.62000000  0.15170000  1.0
  H  H39  1  0.81950000  0.53090000  0.00040000  1.0
  H  H40  1  0.90830000  0.66710000  0.97330000  1.0
  H  H41  1  0.96920000  0.79550000  0.99100000  1.0
  H  H42  1  0.00820000  0.10440000  0.20760000  1.0
  H  H43  1  0.08980000  0.10870000  0.20750000  1.0
  H  H44  1  0.24640000  0.10390000  0.12640000  1.0
  H  H45  1  0.38000000  0.14720000  0.15170000  1.0
  H  H46  1  0.46910000  0.28860000  0.00040000  1.0
  H  H47  1  0.33290000  0.24120000  0.97330000  1.0
  H  H48  1  0.20450000  0.17370000  0.99100000  1.0
  H  H49  1  0.89560000  0.90380000  0.20760000  1.0
  H  H50  1  0.89130000  0.98110000  0.20750000  1.0
  H  H51  1  0.89610000  0.14250000  0.12640000  1.0
  H  H52  1  0.85280000  0.23280000  0.15170000  1.0
  H  H53  1  0.71140000  0.18050000  0.00040000  1.0
  H  H54  1  0.75880000  0.09170000  0.97330000  1.0
  H  H55  1  0.82630000  0.03080000  0.99100000  1.0
  H  H56  1  0.09620000  0.99180000  0.20760000  1.0
  H  H57  1  0.01890000  0.91020000  0.20750000  1.0
  H  H58  1  0.85750000  0.75360000  0.37360000  1.0
  H  H59  1  0.76720000  0.62000000  0.34830000  1.0
  H  H60  1  0.81950000  0.53090000  0.49960000  1.0
  H  H61  1  0.90830000  0.66710000  0.52670000  1.0
  H  H62  1  0.96920000  0.79550000  0.50900000  1.0
  H  H63  1  0.00820000  0.10440000  0.29240000  1.0
  H  H64  1  0.08980000  0.10870000  0.29250000  1.0
  H  H65  1  0.24640000  0.10390000  0.37360000  1.0
  H  H66  1  0.38000000  0.14720000  0.34830000  1.0
  H  H67  1  0.46910000  0.28860000  0.49960000  1.0
  H  H68  1  0.33290000  0.24120000  0.52670000  1.0
  H  H69  1  0.20450000  0.17370000  0.50900000  1.0
  H  H70  1  0.89560000  0.90380000  0.29240000  1.0
  H  H71  1  0.89130000  0.98110000  0.29250000  1.0
  H  H72  1  0.89610000  0.14250000  0.37360000  1.0
  H  H73  1  0.85280000  0.23280000  0.34830000  1.0
  H  H74  1  0.71140000  0.18050000  0.49960000  1.0
  H  H75  1  0.75880000  0.09170000  0.52670000  1.0
  H  H76  1  0.82630000  0.03080000  0.50900000  1.0
  H  H77  1  0.09620000  0.99180000  0.29240000  1.0
  H  H78  1  0.01890000  0.91020000  0.29250000  1.0
  H  H79  1  0.14250000  0.24640000  0.87360000  1.0
  H  H80  1  0.23280000  0.38000000  0.84830000  1.0
  H  H81  1  0.18050000  0.46910000  0.99960000  1.0
  H  H82  1  0.09170000  0.33290000  0.02670000  1.0
  H  H83  1  0.03080000  0.20450000  0.00900000  1.0
  H  H84  1  0.99180000  0.89560000  0.79240000  1.0
  H  H85  1  0.91020000  0.89130000  0.79250000  1.0
  H  H86  1  0.75360000  0.89610000  0.87360000  1.0
  H  H87  1  0.62000000  0.85280000  0.84830000  1.0
  H  H88  1  0.53090000  0.71140000  0.99960000  1.0
  H  H89  1  0.66710000  0.75880000  0.02670000  1.0
  H  H90  1  0.79550000  0.82630000  0.00900000  1.0
  H  H91  1  0.10440000  0.09620000  0.79240000  1.0
  H  H92  1  0.10870000  0.01890000  0.79250000  1.0
  H  H93  1  0.10390000  0.85750000  0.87360000  1.0
  H  H94  1  0.14720000  0.76720000  0.84830000  1.0
  H  H95  1  0.28860000  0.81950000  0.99960000  1.0
  H  H96  1  0.24120000  0.90830000  0.02670000  1.0
  H  H97  1  0.17370000  0.96920000  0.00900000  1.0
  H  H98  1  0.90380000  0.00820000  0.79240000  1.0
  H  H99  1  0.98110000  0.08980000  0.79250000  1.0
  C  C100  1  0.08139000  0.21373000  0.56153000  1.0
  C  C101  1  0.13240000  0.26478000  0.59568000  1.0
  C  C102  1  0.17036000  0.34399000  0.58637000  1.0
  C  C103  1  0.22188000  0.39765000  0.62097000  1.0
  C  C104  1  0.25726000  0.47476000  0.61215000  1.0
  C  C105  1  0.24191000  0.50222000  0.56535000  1.0
  C  C106  1  0.19146000  0.45082000  0.53080000  1.0
  C  C107  1  0.15560000  0.37145000  0.53956000  1.0
  C  C108  1  0.10210000  0.31600000  0.50457000  1.0
  C  C109  1  0.06615000  0.24017000  0.51484000  1.0
  C  C110  1  0.04160000  0.13058000  0.57250000  1.0
  C  C111  1  0.31223000  0.52811000  0.65036000  1.0
  C  C112  1  0.96343000  0.92049000  0.72036000  1.0
  C  C113  1  0.78627000  0.86766000  0.56153000  1.0
  C  C114  1  0.73522000  0.86762000  0.59568000  1.0
  C  C115  1  0.65601000  0.82637000  0.58637000  1.0
  C  C116  1  0.60235000  0.82423000  0.62097000  1.0
  C  C117  1  0.52524000  0.78250000  0.61215000  1.0
  C  C118  1  0.49778000  0.73969000  0.56535000  1.0
  C  C119  1  0.54918000  0.74064000  0.53080000  1.0
  C  C120  1  0.62855000  0.78415000  0.53956000  1.0
  C  C121  1  0.68400000  0.78610000  0.50457000  1.0
  C  C122  1  0.75983000  0.82598000  0.51484000  1.0
  C  C123  1  0.86942000  0.91102000  0.57250000  1.0
  C  C124  1  0.47189000  0.78412000  0.65036000  1.0
  C  C125  1  0.07951000  0.04294000  0.72036000  1.0
  C  C126  1  0.13234000  0.91861000  0.56153000  1.0
  C  C127  1  0.13238000  0.86760000  0.59568000  1.0
  C  C128  1  0.17363000  0.82964000  0.58637000  1.0
  C  C129  1  0.17577000  0.77812000  0.62097000  1.0
  C  C130  1  0.21750000  0.74274000  0.61215000  1.0
  C  C131  1  0.26031000  0.75809000  0.56535000  1.0
  C  C132  1  0.25936000  0.80854000  0.53080000  1.0
  C  C133  1  0.21585000  0.84440000  0.53956000  1.0
  C  C134  1  0.21390000  0.89790000  0.50457000  1.0
  C  C135  1  0.17402000  0.93385000  0.51484000  1.0
  C  C136  1  0.08898000  0.95840000  0.57250000  1.0
  C  C137  1  0.21588000  0.68777000  0.65036000  1.0
  C  C138  1  0.95706000  0.03657000  0.72036000  1.0
  C  C139  1  0.91861000  0.78627000  0.06153000  1.0
  C  C140  1  0.86760000  0.73522000  0.09568000  1.0
  C  C141  1  0.82964000  0.65601000  0.08637000  1.0
  C  C142  1  0.77812000  0.60235000  0.12097000  1.0
  C  C143  1  0.74274000  0.52524000  0.11215000  1.0
  C  C144  1  0.75809000  0.49778000  0.06535000  1.0
  C  C145  1  0.80854000  0.54918000  0.03080000  1.0
  C  C146  1  0.84440000  0.62855000  0.03956000  1.0
  C  C147  1  0.89790000  0.68400000  0.00457000  1.0
  C  C148  1  0.93385000  0.75983000  0.01484000  1.0
  C  C149  1  0.95840000  0.86942000  0.07250000  1.0
  C  C150  1  0.68777000  0.47189000  0.15036000  1.0
  C  C151  1  0.03657000  0.07951000  0.22036000  1.0
  C  C152  1  0.21373000  0.13234000  0.06153000  1.0
  C  C153  1  0.26478000  0.13238000  0.09568000  1.0
  C  C154  1  0.34399000  0.17363000  0.08637000  1.0
  C  C155  1  0.39765000  0.17577000  0.12097000  1.0
  C  C156  1  0.47476000  0.21750000  0.11215000  1.0
  C  C157  1  0.50222000  0.26031000  0.06535000  1.0
  C  C158  1  0.45082000  0.25936000  0.03080000  1.0
  C  C159  1  0.37145000  0.21585000  0.03956000  1.0
  C  C160  1  0.31600000  0.21390000  0.00457000  1.0
  C  C161  1  0.24017000  0.17402000  0.01484000  1.0
  C  C162  1  0.13058000  0.08898000  0.07250000  1.0
  C  C163  1  0.52811000  0.21588000  0.15036000  1.0
  C  C164  1  0.92049000  0.95706000  0.22036000  1.0
  C  C165  1  0.86766000  0.08139000  0.06153000  1.0
  C  C166  1  0.86762000  0.13240000  0.09568000  1.0
  C  C167  1  0.82637000  0.17036000  0.08637000  1.0
  C  C168  1  0.82423000  0.22188000  0.12097000  1.0
  C  C169  1  0.78250000  0.25726000  0.11215000  1.0
  C  C170  1  0.73969000  0.24191000  0.06535000  1.0
  C  C171  1  0.74064000  0.19146000  0.03080000  1.0
  C  C172  1  0.78415000  0.15560000  0.03956000  1.0
  C  C173  1  0.78610000  0.10210000  0.00457000  1.0
  C  C174  1  0.82598000  0.06615000  0.01484000  1.0
  C  C175  1  0.91102000  0.04160000  0.07250000  1.0
  C  C176  1  0.78412000  0.31223000  0.15036000  1.0
  C  C177  1  0.04294000  0.96343000  0.22036000  1.0
  C  C178  1  0.91861000  0.78627000  0.43847000  1.0
  C  C179  1  0.86760000  0.73522000  0.40432000  1.0
  C  C180  1  0.82964000  0.65601000  0.41363000  1.0
  C  C181  1  0.77812000  0.60235000  0.37903000  1.0
  C  C182  1  0.74274000  0.52524000  0.38785000  1.0
  C  C183  1  0.75809000  0.49778000  0.43465000  1.0
  C  C184  1  0.80854000  0.54918000  0.46920000  1.0
  C  C185  1  0.84440000  0.62855000  0.46044000  1.0
  C  C186  1  0.89790000  0.68400000  0.49543000  1.0
  C  C187  1  0.93385000  0.75983000  0.48516000  1.0
  C  C188  1  0.95840000  0.86942000  0.42750000  1.0
  C  C189  1  0.68777000  0.47189000  0.34964000  1.0
  C  C190  1  0.03657000  0.07951000  0.27964000  1.0
  C  C191  1  0.21373000  0.13234000  0.43847000  1.0
  C  C192  1  0.26478000  0.13238000  0.40432000  1.0
  C  C193  1  0.34399000  0.17363000  0.41363000  1.0
  C  C194  1  0.39765000  0.17577000  0.37903000  1.0
  C  C195  1  0.47476000  0.21750000  0.38785000  1.0
  C  C196  1  0.50222000  0.26031000  0.43465000  1.0
  C  C197  1  0.45082000  0.25936000  0.46920000  1.0
  C  C198  1  0.37145000  0.21585000  0.46044000  1.0
  C  C199  1  0.31600000  0.21390000  0.49543000  1.0
  C  C200  1  0.24017000  0.17402000  0.48516000  1.0
  C  C201  1  0.13058000  0.08898000  0.42750000  1.0
  C  C202  1  0.52811000  0.21588000  0.34964000  1.0
  C  C203  1  0.92049000  0.95706000  0.27964000  1.0
  C  C204  1  0.86766000  0.08139000  0.43847000  1.0
  C  C205  1  0.86762000  0.13240000  0.40432000  1.0
  C  C206  1  0.82637000  0.17036000  0.41363000  1.0
  C  C207  1  0.82423000  0.22188000  0.37903000  1.0
  C  C208  1  0.78250000  0.25726000  0.38785000  1.0
  C  C209  1  0.73969000  0.24191000  0.43465000  1.0
  C  C210  1  0.74064000  0.19146000  0.46920000  1.0
  C  C211  1  0.78415000  0.15560000  0.46044000  1.0
  C  C212  1  0.78610000  0.10210000  0.49543000  1.0
  C  C213  1  0.82598000  0.06615000  0.48516000  1.0
  C  C214  1  0.91102000  0.04160000  0.42750000  1.0
  C  C215  1  0.78412000  0.31223000  0.34964000  1.0
  C  C216  1  0.04294000  0.96343000  0.27964000  1.0
  C  C217  1  0.08139000  0.21373000  0.93847000  1.0
  C  C218  1  0.13240000  0.26478000  0.90432000  1.0
  C  C219  1  0.17036000  0.34399000  0.91363000  1.0
  C  C220  1  0.22188000  0.39765000  0.87903000  1.0
  C  C221  1  0.25726000  0.47476000  0.88785000  1.0
  C  C222  1  0.24191000  0.50222000  0.93465000  1.0
  C  C223  1  0.19146000  0.45082000  0.96920000  1.0
  C  C224  1  0.15560000  0.37145000  0.96044000  1.0
  C  C225  1  0.10210000  0.31600000  0.99543000  1.0
  C  C226  1  0.06615000  0.24017000  0.98516000  1.0
  C  C227  1  0.04160000  0.13058000  0.92750000  1.0
  C  C228  1  0.31223000  0.52811000  0.84964000  1.0
  C  C229  1  0.96343000  0.92049000  0.77964000  1.0
  C  C230  1  0.78627000  0.86766000  0.93847000  1.0
  C  C231  1  0.73522000  0.86762000  0.90432000  1.0
  C  C232  1  0.65601000  0.82637000  0.91363000  1.0
  C  C233  1  0.60235000  0.82423000  0.87903000  1.0
  C  C234  1  0.52524000  0.78250000  0.88785000  1.0
  C  C235  1  0.49778000  0.73969000  0.93465000  1.0
  C  C236  1  0.54918000  0.74064000  0.96920000  1.0
  C  C237  1  0.62855000  0.78415000  0.96044000  1.0
  C  C238  1  0.68400000  0.78610000  0.99543000  1.0
  C  C239  1  0.75983000  0.82598000  0.98516000  1.0
  C  C240  1  0.86942000  0.91102000  0.92750000  1.0
  C  C241  1  0.47189000  0.78412000  0.84964000  1.0
  C  C242  1  0.07951000  0.04294000  0.77964000  1.0
  C  C243  1  0.13234000  0.91861000  0.93847000  1.0
  C  C244  1  0.13238000  0.86760000  0.90432000  1.0
  C  C245  1  0.17363000  0.82964000  0.91363000  1.0
  C  C246  1  0.17577000  0.77812000  0.87903000  1.0
  C  C247  1  0.21750000  0.74274000  0.88785000  1.0
  C  C248  1  0.26031000  0.75809000  0.93465000  1.0
  C  C249  1  0.25936000  0.80854000  0.96920000  1.0
  C  C250  1  0.21585000  0.84440000  0.96044000  1.0
  C  C251  1  0.21390000  0.89790000  0.99543000  1.0
  C  C252  1  0.17402000  0.93385000  0.98516000  1.0
  C  C253  1  0.08898000  0.95840000  0.92750000  1.0
  C  C254  1  0.21588000  0.68777000  0.84964000  1.0
  C  C255  1  0.95706000  0.03657000  0.77964000  1.0
  C  C256  1  0.33333333  0.66666667  0.75000000  1.0
  C  C257  1  0.66666667  0.33333333  0.25000000  1.0
  N  N258  1  0.00000000  0.00000000  0.70179000  1.0
  N  N259  1  0.00000000  0.00000000  0.20179000  1.0
  N  N260  1  0.00000000  0.00000000  0.29821000  1.0
  N  N261  1  0.00000000  0.00000000  0.79821000  1.0
  O  O262  1  0.05838000  0.10985000  0.61408000  1.0
  O  O263  1  0.99365000  0.08378000  0.54160000  1.0
  O  O264  1  0.32279000  0.49983000  0.69112000  1.0
  O  O265  1  0.35089000  0.59946000  0.64177000  1.0
  O  O266  1  0.27247000  0.57639000  0.55713000  1.0
  O  O267  1  0.89015000  0.94853000  0.61408000  1.0
  O  O268  1  0.91622000  0.90987000  0.54160000  1.0
  O  O269  1  0.50017000  0.82296000  0.69112000  1.0
  O  O270  1  0.40054000  0.75143000  0.64177000  1.0
  O  O271  1  0.42361000  0.69608000  0.55713000  1.0
  O  O272  1  0.05147000  0.94162000  0.61408000  1.0
  O  O273  1  0.09013000  0.00635000  0.54160000  1.0
  O  O274  1  0.17704000  0.67721000  0.69112000  1.0
  O  O275  1  0.24857000  0.64911000  0.64177000  1.0
  O  O276  1  0.30392000  0.72753000  0.55713000  1.0
  O  O277  1  0.94162000  0.89015000  0.11408000  1.0
  O  O278  1  0.00635000  0.91622000  0.04160000  1.0
  O  O279  1  0.67721000  0.50017000  0.19112000  1.0
  O  O280  1  0.64911000  0.40054000  0.14177000  1.0
  O  O281  1  0.72753000  0.42361000  0.05713000  1.0
  O  O282  1  0.10985000  0.05147000  0.11408000  1.0
  O  O283  1  0.08378000  0.09013000  0.04160000  1.0
  O  O284  1  0.49983000  0.17704000  0.19112000  1.0
  O  O285  1  0.59946000  0.24857000  0.14177000  1.0
  O  O286  1  0.57639000  0.30392000  0.05713000  1.0
  O  O287  1  0.94853000  0.05838000  0.11408000  1.0
  O  O288  1  0.90987000  0.99365000  0.04160000  1.0
  O  O289  1  0.82296000  0.32279000  0.19112000  1.0
  O  O290  1  0.75143000  0.35089000  0.14177000  1.0
  O  O291  1  0.69608000  0.27247000  0.05713000  1.0
  O  O292  1  0.94162000  0.89015000  0.38592000  1.0
  O  O293  1  0.00635000  0.91622000  0.45840000  1.0
  O  O294  1  0.67721000  0.50017000  0.30888000  1.0
  O  O295  1  0.64911000  0.40054000  0.35823000  1.0
  O  O296  1  0.72753000  0.42361000  0.44287000  1.0
  O  O297  1  0.10985000  0.05147000  0.38592000  1.0
  O  O298  1  0.08378000  0.09013000  0.45840000  1.0
  O  O299  1  0.49983000  0.17704000  0.30888000  1.0
  O  O300  1  0.59946000  0.24857000  0.35823000  1.0
  O  O301  1  0.57639000  0.30392000  0.44287000  1.0
  O  O302  1  0.94853000  0.05838000  0.38592000  1.0
  O  O303  1  0.90987000  0.99365000  0.45840000  1.0
  O  O304  1  0.82296000  0.32279000  0.30888000  1.0
  O  O305  1  0.75143000  0.35089000  0.35823000  1.0
  O  O306  1  0.69608000  0.27247000  0.44287000  1.0
  O  O307  1  0.05838000  0.10985000  0.88592000  1.0
  O  O308  1  0.99365000  0.08378000  0.95840000  1.0
  O  O309  1  0.32279000  0.49983000  0.80888000  1.0
  O  O310  1  0.35089000  0.59946000  0.85823000  1.0
  O  O311  1  0.27247000  0.57639000  0.94287000  1.0
  O  O312  1  0.89015000  0.94853000  0.88592000  1.0
  O  O313  1  0.91622000  0.90987000  0.95840000  1.0
  O  O314  1  0.50017000  0.82296000  0.80888000  1.0
  O  O315  1  0.40054000  0.75143000  0.85823000  1.0
  O  O316  1  0.42361000  0.69608000  0.94287000  1.0
  O  O317  1  0.05147000  0.94162000  0.88592000  1.0
  O  O318  1  0.09013000  0.00635000  0.95840000  1.0
  O  O319  1  0.17704000  0.67721000  0.80888000  1.0
  O  O320  1  0.24857000  0.64911000  0.85823000  1.0
  O  O321  1  0.30392000  0.72753000  0.94287000  1.0
  O  O322  1  0.39786000  0.66881000  0.75000000  1.0
  O  O323  1  0.33119000  0.72905000  0.75000000  1.0
  O  O324  1  0.27095000  0.60214000  0.75000000  1.0
  O  O325  1  0.60214000  0.33119000  0.25000000  1.0
  O  O326  1  0.66881000  0.27095000  0.25000000  1.0
  O  O327  1  0.72905000  0.39786000  0.25000000  1.0
