# generated using pymatgen
data_AgH8(CN)2
_symmetry_space_group_name_H-M   'P 1'
_cell_length_a   10.48690000
_cell_length_b   10.47980000
_cell_length_c   6.32790000
_cell_angle_alpha   90.00000000
_cell_angle_beta   115.43100000
_cell_angle_gamma   90.00000000
_symmetry_Int_Tables_number   1
_chemical_formula_structural   AgH8(CN)2
_chemical_formula_sum   'Ag4 H32 C8 N8'
_cell_volume   628.05409866
_cell_formula_units_Z   4
loop_
 _symmetry_equiv_pos_site_id
 _symmetry_equiv_pos_as_xyz
  1  'x, y, z'
loop_
 _atom_site_type_symbol
 _atom_site_label
 _atom_site_symmetry_multiplicity
 _atom_site_fract_x
 _atom_site_fract_y
 _atom_site_fract_z
 _atom_site_occupancy
  Ag  Ag0  1  0.50000000  0.00000000  0.50000000  1.0
  Ag  Ag1  1  0.00000000  0.50000000  0.50000000  1.0
  Ag  Ag2  1  0.50000000  0.00000000  0.00000000  1.0
  Ag  Ag3  1  0.00000000  0.50000000  0.00000000  1.0
  H  H4  1  0.39700000  0.26390000  0.58370000  1.0
  H  H5  1  0.32500000  0.16880000  0.69020000  1.0
  H  H6  1  0.30120000  0.14890000  0.24650000  1.0
  H  H7  1  0.24040000  0.05900000  0.35230000  1.0
  H  H8  1  0.89700000  0.76390000  0.58370000  1.0
  H  H9  1  0.82500000  0.66880000  0.69020000  1.0
  H  H10  1  0.80120000  0.64890000  0.24650000  1.0
  H  H11  1  0.74040000  0.55900000  0.35230000  1.0
  H  H12  1  0.60300000  0.26390000  0.91630000  1.0
  H  H13  1  0.67500000  0.16880000  0.80980000  1.0
  H  H14  1  0.69880000  0.14890000  0.25350000  1.0
  H  H15  1  0.75960000  0.05900000  0.14770000  1.0
  H  H16  1  0.10300000  0.76390000  0.91630000  1.0
  H  H17  1  0.17500000  0.66880000  0.80980000  1.0
  H  H18  1  0.19880000  0.64890000  0.25350000  1.0
  H  H19  1  0.25960000  0.55900000  0.14770000  1.0
  H  H20  1  0.60300000  0.73610000  0.41630000  1.0
  H  H21  1  0.67500000  0.83120000  0.30980000  1.0
  H  H22  1  0.69880000  0.85110000  0.75350000  1.0
  H  H23  1  0.75960000  0.94100000  0.64770000  1.0
  H  H24  1  0.10300000  0.23610000  0.41630000  1.0
  H  H25  1  0.17500000  0.33120000  0.30980000  1.0
  H  H26  1  0.19880000  0.35110000  0.75350000  1.0
  H  H27  1  0.25960000  0.44100000  0.64770000  1.0
  H  H28  1  0.39700000  0.73610000  0.08370000  1.0
  H  H29  1  0.32500000  0.83120000  0.19020000  1.0
  H  H30  1  0.30120000  0.85110000  0.74650000  1.0
  H  H31  1  0.24040000  0.94100000  0.85230000  1.0
  H  H32  1  0.89700000  0.23610000  0.08370000  1.0
  H  H33  1  0.82500000  0.33120000  0.19020000  1.0
  H  H34  1  0.80120000  0.35110000  0.74650000  1.0
  H  H35  1  0.74040000  0.44100000  0.85230000  1.0
  C  C36  1  0.31540000  0.20950000  0.54640000  1.0
  C  C37  1  0.81540000  0.70950000  0.54640000  1.0
  C  C38  1  0.68460000  0.20950000  0.95360000  1.0
  C  C39  1  0.18460000  0.70950000  0.95360000  1.0
  C  C40  1  0.68460000  0.79050000  0.45360000  1.0
  C  C41  1  0.18460000  0.29050000  0.45360000  1.0
  C  C42  1  0.31540000  0.79050000  0.04640000  1.0
  C  C43  1  0.81540000  0.29050000  0.04640000  1.0
  N  N44  1  0.31430000  0.11120000  0.38210000  1.0
  N  N45  1  0.81430000  0.61120000  0.38210000  1.0
  N  N46  1  0.68570000  0.11120000  0.11790000  1.0
  N  N47  1  0.18570000  0.61120000  0.11790000  1.0
  N  N48  1  0.68570000  0.88880000  0.61790000  1.0
  N  N49  1  0.18570000  0.38880000  0.61790000  1.0
  N  N50  1  0.31430000  0.88880000  0.88210000  1.0
  N  N51  1  0.81430000  0.38880000  0.88210000  1.0
