# generated using pymatgen
data_AgH8(CN)2
_symmetry_space_group_name_H-M   'P 1'
_cell_length_a   10.18950000
_cell_length_b   10.68380000
_cell_length_c   6.20960000
_cell_angle_alpha   90.00000000
_cell_angle_beta   114.38900000
_cell_angle_gamma   90.00000000
_symmetry_Int_Tables_number   1
_chemical_formula_structural   AgH8(CN)2
_chemical_formula_sum   'Ag4 H32 C8 N8'
_cell_volume   615.66945230
_cell_formula_units_Z   4
loop_
 _symmetry_equiv_pos_site_id
 _symmetry_equiv_pos_as_xyz
  1  'x, y, z'
loop_
 _atom_site_type_symbol
 _atom_site_label
 _atom_site_symmetry_multiplicity
 _atom_site_fract_x
 _atom_site_fract_y
 _atom_site_fract_z
 _atom_site_occupancy
  Ag  Ag0  1  0.50000000  0.00000000  0.50000000  1.0
  Ag  Ag1  1  0.00000000  0.50000000  0.50000000  1.0
  Ag  Ag2  1  0.50000000  0.00000000  0.00000000  1.0
  Ag  Ag3  1  0.00000000  0.50000000  0.00000000  1.0
  H  H4  1  0.29490000  0.14320000  0.23500000  1.0
  H  H5  1  0.23330000  0.05840000  0.35920000  1.0
  H  H6  1  0.40140000  0.26550000  0.56800000  1.0
  H  H7  1  0.33360000  0.17460000  0.70030000  1.0
  H  H8  1  0.79490000  0.64320000  0.23500000  1.0
  H  H9  1  0.73330000  0.55840000  0.35920000  1.0
  H  H10  1  0.90140000  0.76550000  0.56800000  1.0
  H  H11  1  0.83360000  0.67460000  0.70030000  1.0
  H  H12  1  0.70510000  0.14320000  0.26500000  1.0
  H  H13  1  0.76670000  0.05840000  0.14080000  1.0
  H  H14  1  0.59860000  0.26550000  0.93200000  1.0
  H  H15  1  0.66640000  0.17460000  0.79970000  1.0
  H  H16  1  0.20510000  0.64320000  0.26500000  1.0
  H  H17  1  0.26670000  0.55840000  0.14080000  1.0
  H  H18  1  0.09860000  0.76550000  0.93200000  1.0
  H  H19  1  0.16640000  0.67460000  0.79970000  1.0
  H  H20  1  0.70510000  0.85680000  0.76500000  1.0
  H  H21  1  0.76670000  0.94160000  0.64080000  1.0
  H  H22  1  0.59860000  0.73450000  0.43200000  1.0
  H  H23  1  0.66640000  0.82540000  0.29970000  1.0
  H  H24  1  0.20510000  0.35680000  0.76500000  1.0
  H  H25  1  0.26670000  0.44160000  0.64080000  1.0
  H  H26  1  0.09860000  0.23450000  0.43200000  1.0
  H  H27  1  0.16640000  0.32540000  0.29970000  1.0
  H  H28  1  0.29490000  0.85680000  0.73500000  1.0
  H  H29  1  0.23330000  0.94160000  0.85920000  1.0
  H  H30  1  0.40140000  0.73450000  0.06800000  1.0
  H  H31  1  0.33360000  0.82540000  0.20030000  1.0
  H  H32  1  0.79490000  0.35680000  0.73500000  1.0
  H  H33  1  0.73330000  0.44160000  0.85920000  1.0
  H  H34  1  0.90140000  0.23450000  0.06800000  1.0
  H  H35  1  0.83360000  0.32540000  0.20030000  1.0
  C  C36  1  0.31810000  0.21100000  0.54500000  1.0
  C  C37  1  0.81810000  0.71100000  0.54500000  1.0
  C  C38  1  0.68190000  0.21100000  0.95500000  1.0
  C  C39  1  0.18190000  0.71100000  0.95500000  1.0
  C  C40  1  0.68190000  0.78900000  0.45500000  1.0
  C  C41  1  0.18190000  0.28900000  0.45500000  1.0
  C  C42  1  0.31810000  0.78900000  0.04500000  1.0
  C  C43  1  0.81810000  0.28900000  0.04500000  1.0
  N  N44  1  0.31040000  0.10920000  0.37960000  1.0
  N  N45  1  0.81040000  0.60920000  0.37960000  1.0
  N  N46  1  0.68960000  0.10920000  0.12040000  1.0
  N  N47  1  0.18960000  0.60920000  0.12040000  1.0
  N  N48  1  0.68960000  0.89080000  0.62040000  1.0
  N  N49  1  0.18960000  0.39080000  0.62040000  1.0
  N  N50  1  0.31040000  0.89080000  0.87960000  1.0
  N  N51  1  0.81040000  0.39080000  0.87960000  1.0
