# generated using pymatgen
data_AgH8(CN)2
_symmetry_space_group_name_H-M   'P 1'
_cell_length_a   10.63200000
_cell_length_b   10.21900000
_cell_length_c   6.11500000
_cell_angle_alpha   90.00000000
_cell_angle_beta   114.46000000
_cell_angle_gamma   90.00000000
_symmetry_Int_Tables_number   1
_chemical_formula_structural   AgH8(CN)2
_chemical_formula_sum   'Ag4 H32 C8 N8'
_cell_volume   604.75683162
_cell_formula_units_Z   4
loop_
 _symmetry_equiv_pos_site_id
 _symmetry_equiv_pos_as_xyz
  1  'x, y, z'
loop_
 _atom_site_type_symbol
 _atom_site_label
 _atom_site_symmetry_multiplicity
 _atom_site_fract_x
 _atom_site_fract_y
 _atom_site_fract_z
 _atom_site_occupancy
  Ag  Ag0  1  0.50000000  0.00000000  0.50000000  1.0
  Ag  Ag1  1  0.00000000  0.50000000  0.50000000  1.0
  Ag  Ag2  1  0.50000000  0.00000000  0.00000000  1.0
  Ag  Ag3  1  0.00000000  0.50000000  0.00000000  1.0
  H  H4  1  0.34370000  0.18200000  0.69860000  1.0
  H  H5  1  0.38610000  0.27200000  0.53210000  1.0
  H  H6  1  0.27300000  0.13180000  0.22140000  1.0
  H  H7  1  0.23210000  0.04830000  0.37490000  1.0
  H  H8  1  0.84370000  0.68200000  0.69860000  1.0
  H  H9  1  0.88610000  0.77200000  0.53210000  1.0
  H  H10  1  0.77300000  0.63180000  0.22140000  1.0
  H  H11  1  0.73210000  0.54830000  0.37490000  1.0
  H  H12  1  0.65630000  0.18200000  0.80140000  1.0
  H  H13  1  0.61390000  0.27200000  0.96790000  1.0
  H  H14  1  0.72700000  0.13180000  0.27860000  1.0
  H  H15  1  0.76790000  0.04830000  0.12510000  1.0
  H  H16  1  0.15630000  0.68200000  0.80140000  1.0
  H  H17  1  0.11390000  0.77200000  0.96790000  1.0
  H  H18  1  0.22700000  0.63180000  0.27860000  1.0
  H  H19  1  0.26790000  0.54830000  0.12510000  1.0
  H  H20  1  0.65630000  0.81800000  0.30140000  1.0
  H  H21  1  0.61390000  0.72800000  0.46790000  1.0
  H  H22  1  0.72700000  0.86820000  0.77860000  1.0
  H  H23  1  0.76790000  0.95170000  0.62510000  1.0
  H  H24  1  0.15630000  0.31800000  0.30140000  1.0
  H  H25  1  0.11390000  0.22800000  0.46790000  1.0
  H  H26  1  0.22700000  0.36820000  0.77860000  1.0
  H  H27  1  0.26790000  0.45170000  0.62510000  1.0
  H  H28  1  0.34370000  0.81800000  0.19860000  1.0
  H  H29  1  0.38610000  0.72800000  0.03210000  1.0
  H  H30  1  0.27300000  0.86820000  0.72140000  1.0
  H  H31  1  0.23210000  0.95170000  0.87490000  1.0
  H  H32  1  0.84370000  0.31800000  0.19860000  1.0
  H  H33  1  0.88610000  0.22800000  0.03210000  1.0
  H  H34  1  0.77300000  0.36820000  0.72140000  1.0
  H  H35  1  0.73210000  0.45170000  0.87490000  1.0
  C  C36  1  0.31500000  0.21390000  0.53600000  1.0
  C  C37  1  0.81500000  0.71390000  0.53600000  1.0
  C  C38  1  0.68500000  0.21390000  0.96400000  1.0
  C  C39  1  0.18500000  0.71390000  0.96400000  1.0
  C  C40  1  0.68500000  0.78610000  0.46400000  1.0
  C  C41  1  0.18500000  0.28610000  0.46400000  1.0
  C  C42  1  0.31500000  0.78610000  0.03600000  1.0
  C  C43  1  0.81500000  0.28610000  0.03600000  1.0
  N  N44  1  0.29800000  0.10300000  0.37300000  1.0
  N  N45  1  0.79800000  0.60300000  0.37300000  1.0
  N  N46  1  0.70200000  0.10300000  0.12700000  1.0
  N  N47  1  0.20200000  0.60300000  0.12700000  1.0
  N  N48  1  0.70200000  0.89700000  0.62700000  1.0
  N  N49  1  0.20200000  0.39700000  0.62700000  1.0
  N  N50  1  0.29800000  0.89700000  0.87300000  1.0
  N  N51  1  0.79800000  0.39700000  0.87300000  1.0
