# generated using pymatgen
data_AgH8(CN)2
_symmetry_space_group_name_H-M   'P 1'
_cell_length_a   20.87800000
_cell_length_b   19.78900000
_cell_length_c   6.16530000
_cell_angle_alpha   90.00000000
_cell_angle_beta   114.42900000
_cell_angle_gamma   90.00000000
_symmetry_Int_Tables_number   1
_chemical_formula_structural   AgH8(CN)2
_chemical_formula_sum   'Ag16 H128 C32 N32'
_cell_volume   2319.18140521
_cell_formula_units_Z   16
loop_
 _symmetry_equiv_pos_site_id
 _symmetry_equiv_pos_as_xyz
  1  'x, y, z'
loop_
 _atom_site_type_symbol
 _atom_site_label
 _atom_site_symmetry_multiplicity
 _atom_site_fract_x
 _atom_site_fract_y
 _atom_site_fract_z
 _atom_site_occupancy
  Ag  Ag0  1  0.50000000  0.00000000  0.00000000  1.0
  Ag  Ag1  1  0.00000000  0.50000000  0.00000000  1.0
  Ag  Ag2  1  0.50000000  0.00000000  0.50000000  1.0
  Ag  Ag3  1  0.00000000  0.50000000  0.50000000  1.0
  Ag  Ag4  1  0.75000000  0.25000000  0.00000000  1.0
  Ag  Ag5  1  0.25000000  0.25000000  0.50000000  1.0
  Ag  Ag6  1  0.25000000  0.75000000  0.00000000  1.0
  Ag  Ag7  1  0.75000000  0.75000000  0.50000000  1.0
  Ag  Ag8  1  0.75000000  0.25000000  0.50000000  1.0
  Ag  Ag9  1  0.25000000  0.25000000  0.00000000  1.0
  Ag  Ag10  1  0.25000000  0.75000000  0.50000000  1.0
  Ag  Ag11  1  0.75000000  0.75000000  0.00000000  1.0
  Ag  Ag12  1  0.00000000  0.00000000  0.50000000  1.0
  Ag  Ag13  1  0.50000000  0.50000000  0.50000000  1.0
  Ag  Ag14  1  0.00000000  0.00000000  0.00000000  1.0
  Ag  Ag15  1  0.50000000  0.50000000  0.00000000  1.0
  H  H16  1  0.61520000  0.05960000  0.26930000  1.0
  H  H17  1  0.63170000  0.01770000  0.10490000  1.0
  H  H18  1  0.63150000  0.22640000  0.88730000  1.0
  H  H19  1  0.65710000  0.18330000  0.75030000  1.0
  H  H20  1  0.88390000  0.22470000  0.62710000  1.0
  H  H21  1  0.86050000  0.17860000  0.76480000  1.0
  H  H22  1  0.90110000  0.07290000  0.24460000  1.0
  H  H23  1  0.87360000  0.02680000  0.36920000  1.0
  H  H24  1  0.56320000  0.13840000  0.98360000  1.0
  H  H25  1  0.58050000  0.09320000  0.80570000  1.0
  H  H26  1  0.68260000  0.15560000  0.21330000  1.0
  H  H27  1  0.70170000  0.10740000  0.04720000  1.0
  H  H28  1  0.83110000  0.15940000  0.28620000  1.0
  H  H29  1  0.80390000  0.11000000  0.43200000  1.0
  H  H30  1  0.94920000  0.14200000  0.57270000  1.0
  H  H31  1  0.92150000  0.09130000  0.71260000  1.0
  H  H32  1  0.11520000  0.55960000  0.26930000  1.0
  H  H33  1  0.13170000  0.51770000  0.10490000  1.0
  H  H34  1  0.13150000  0.72640000  0.88730000  1.0
  H  H35  1  0.15710000  0.68330000  0.75030000  1.0
  H  H36  1  0.38390000  0.72470000  0.62710000  1.0
  H  H37  1  0.36050000  0.67860000  0.76480000  1.0
  H  H38  1  0.40110000  0.57290000  0.24460000  1.0
  H  H39  1  0.37360000  0.52680000  0.36920000  1.0
  H  H40  1  0.06320000  0.63840000  0.98360000  1.0
  H  H41  1  0.08050000  0.59320000  0.80570000  1.0
  H  H42  1  0.18260000  0.65560000  0.21330000  1.0
  H  H43  1  0.20170000  0.60740000  0.04720000  1.0
  H  H44  1  0.33110000  0.65940000  0.28620000  1.0
  H  H45  1  0.30390000  0.61000000  0.43200000  1.0
  H  H46  1  0.44920000  0.64200000  0.57270000  1.0
  H  H47  1  0.42150000  0.59130000  0.71260000  1.0
  H  H48  1  0.38480000  0.05960000  0.23070000  1.0
  H  H49  1  0.36830000  0.01770000  0.39510000  1.0
  H  H50  1  0.36850000  0.22640000  0.61270000  1.0
  H  H51  1  0.34290000  0.18330000  0.74970000  1.0
  H  H52  1  0.11610000  0.22470000  0.87290000  1.0
  H  H53  1  0.13950000  0.17860000  0.73520000  1.0
  H  H54  1  0.09890000  0.07290000  0.25540000  1.0
  H  H55  1  0.12640000  0.02680000  0.13080000  1.0
  H  H56  1  0.43680000  0.13840000  0.51640000  1.0
  H  H57  1  0.41950000  0.09320000  0.69430000  1.0
  H  H58  1  0.31740000  0.15560000  0.28670000  1.0
  H  H59  1  0.29830000  0.10740000  0.45280000  1.0
  H  H60  1  0.16890000  0.15940000  0.21380000  1.0
  H  H61  1  0.19610000  0.11000000  0.06800000  1.0
  H  H62  1  0.05080000  0.14200000  0.92730000  1.0
  H  H63  1  0.07850000  0.09130000  0.78740000  1.0
  H  H64  1  0.88480000  0.55960000  0.23070000  1.0
  H  H65  1  0.86830000  0.51770000  0.39510000  1.0
  H  H66  1  0.86850000  0.72640000  0.61270000  1.0
  H  H67  1  0.84290000  0.68330000  0.74970000  1.0
  H  H68  1  0.61610000  0.72470000  0.87290000  1.0
  H  H69  1  0.63950000  0.67860000  0.73520000  1.0
  H  H70  1  0.59890000  0.57290000  0.25540000  1.0
  H  H71  1  0.62640000  0.52680000  0.13080000  1.0
  H  H72  1  0.93680000  0.63840000  0.51640000  1.0
  H  H73  1  0.91950000  0.59320000  0.69430000  1.0
  H  H74  1  0.81740000  0.65560000  0.28670000  1.0
  H  H75  1  0.79830000  0.60740000  0.45280000  1.0
  H  H76  1  0.66890000  0.65940000  0.21380000  1.0
  H  H77  1  0.69610000  0.61000000  0.06800000  1.0
  H  H78  1  0.55080000  0.64200000  0.92730000  1.0
  H  H79  1  0.57850000  0.59130000  0.78740000  1.0
  H  H80  1  0.38480000  0.94040000  0.73070000  1.0
  H  H81  1  0.36830000  0.98230000  0.89510000  1.0
  H  H82  1  0.36850000  0.77360000  0.11270000  1.0
  H  H83  1  0.34290000  0.81670000  0.24970000  1.0
  H  H84  1  0.11610000  0.77530000  0.37290000  1.0
  H  H85  1  0.13950000  0.82140000  0.23520000  1.0
  H  H86  1  0.09890000  0.92710000  0.75540000  1.0
  H  H87  1  0.12640000  0.97320000  0.63080000  1.0
  H  H88  1  0.43680000  0.86160000  0.01640000  1.0
  H  H89  1  0.41950000  0.90680000  0.19430000  1.0
  H  H90  1  0.31740000  0.84440000  0.78670000  1.0
  H  H91  1  0.29830000  0.89260000  0.95280000  1.0
  H  H92  1  0.16890000  0.84060000  0.71380000  1.0
  H  H93  1  0.19610000  0.89000000  0.56800000  1.0
  H  H94  1  0.05080000  0.85800000  0.42730000  1.0
  H  H95  1  0.07850000  0.90870000  0.28740000  1.0
  H  H96  1  0.88480000  0.44040000  0.73070000  1.0
  H  H97  1  0.86830000  0.48230000  0.89510000  1.0
  H  H98  1  0.86850000  0.27360000  0.11270000  1.0
  H  H99  1  0.84290000  0.31670000  0.24970000  1.0
  H  H100  1  0.61610000  0.27530000  0.37290000  1.0
  H  H101  1  0.63950000  0.32140000  0.23520000  1.0
  H  H102  1  0.59890000  0.42710000  0.75540000  1.0
  H  H103  1  0.62640000  0.47320000  0.63080000  1.0
  H  H104  1  0.93680000  0.36160000  0.01640000  1.0
  H  H105  1  0.91950000  0.40680000  0.19430000  1.0
  H  H106  1  0.81740000  0.34440000  0.78670000  1.0
  H  H107  1  0.79830000  0.39260000  0.95280000  1.0
  H  H108  1  0.66890000  0.34060000  0.71380000  1.0
  H  H109  1  0.69610000  0.39000000  0.56800000  1.0
  H  H110  1  0.55080000  0.35800000  0.42730000  1.0
  H  H111  1  0.57850000  0.40870000  0.28740000  1.0
  H  H112  1  0.61520000  0.94040000  0.76930000  1.0
  H  H113  1  0.63170000  0.98230000  0.60490000  1.0
  H  H114  1  0.63150000  0.77360000  0.38730000  1.0
  H  H115  1  0.65710000  0.81670000  0.25030000  1.0
  H  H116  1  0.88390000  0.77530000  0.12710000  1.0
  H  H117  1  0.86050000  0.82140000  0.26480000  1.0
  H  H118  1  0.90110000  0.92710000  0.74460000  1.0
  H  H119  1  0.87360000  0.97320000  0.86920000  1.0
  H  H120  1  0.56320000  0.86160000  0.48360000  1.0
  H  H121  1  0.58050000  0.90680000  0.30570000  1.0
  H  H122  1  0.68260000  0.84440000  0.71330000  1.0
  H  H123  1  0.70170000  0.89260000  0.54720000  1.0
  H  H124  1  0.83110000  0.84060000  0.78620000  1.0
  H  H125  1  0.80390000  0.89000000  0.93200000  1.0
  H  H126  1  0.94920000  0.85800000  0.07270000  1.0
  H  H127  1  0.92150000  0.90870000  0.21260000  1.0
  H  H128  1  0.11520000  0.44040000  0.76930000  1.0
  H  H129  1  0.13170000  0.48230000  0.60490000  1.0
  H  H130  1  0.13150000  0.27360000  0.38730000  1.0
  H  H131  1  0.15710000  0.31670000  0.25030000  1.0
  H  H132  1  0.38390000  0.27530000  0.12710000  1.0
  H  H133  1  0.36050000  0.32140000  0.26480000  1.0
  H  H134  1  0.40110000  0.42710000  0.74460000  1.0
  H  H135  1  0.37360000  0.47320000  0.86920000  1.0
  H  H136  1  0.06320000  0.36160000  0.48360000  1.0
  H  H137  1  0.08050000  0.40680000  0.30570000  1.0
  H  H138  1  0.18260000  0.34440000  0.71330000  1.0
  H  H139  1  0.20170000  0.39260000  0.54720000  1.0
  H  H140  1  0.33110000  0.34060000  0.78620000  1.0
  H  H141  1  0.30390000  0.39000000  0.93200000  1.0
  H  H142  1  0.44920000  0.35800000  0.07270000  1.0
  H  H143  1  0.42150000  0.40870000  0.21260000  1.0
  C  C144  1  0.59680000  0.10650000  0.97100000  1.0
  C  C145  1  0.66760000  0.14030000  0.05000000  1.0
  C  C146  1  0.84070000  0.14150000  0.44300000  1.0
  C  C147  1  0.91270000  0.10950000  0.55700000  1.0
  C  C148  1  0.09680000  0.60650000  0.97100000  1.0
  C  C149  1  0.16760000  0.64030000  0.05000000  1.0
  C  C150  1  0.34070000  0.64150000  0.44300000  1.0
  C  C151  1  0.41270000  0.60950000  0.55700000  1.0
  C  C152  1  0.40320000  0.10650000  0.52900000  1.0
  C  C153  1  0.33240000  0.14030000  0.45000000  1.0
  C  C154  1  0.15930000  0.14150000  0.05700000  1.0
  C  C155  1  0.08730000  0.10950000  0.94300000  1.0
  C  C156  1  0.90320000  0.60650000  0.52900000  1.0
  C  C157  1  0.83240000  0.64030000  0.45000000  1.0
  C  C158  1  0.65930000  0.64150000  0.05700000  1.0
  C  C159  1  0.58730000  0.60950000  0.94300000  1.0
  C  C160  1  0.40320000  0.89350000  0.02900000  1.0
  C  C161  1  0.33240000  0.85970000  0.95000000  1.0
  C  C162  1  0.15930000  0.85850000  0.55700000  1.0
  C  C163  1  0.08730000  0.89050000  0.44300000  1.0
  C  C164  1  0.90320000  0.39350000  0.02900000  1.0
  C  C165  1  0.83240000  0.35970000  0.95000000  1.0
  C  C166  1  0.65930000  0.35850000  0.55700000  1.0
  C  C167  1  0.58730000  0.39050000  0.44300000  1.0
  C  C168  1  0.59680000  0.89350000  0.47100000  1.0
  C  C169  1  0.66760000  0.85970000  0.55000000  1.0
  C  C170  1  0.84070000  0.85850000  0.94300000  1.0
  C  C171  1  0.91270000  0.89050000  0.05700000  1.0
  C  C172  1  0.09680000  0.39350000  0.47100000  1.0
  C  C173  1  0.16760000  0.35970000  0.55000000  1.0
  C  C174  1  0.34070000  0.35850000  0.94300000  1.0
  C  C175  1  0.41270000  0.39050000  0.05700000  1.0
  N  N176  1  0.60040000  0.04730000  0.11600000  1.0
  N  N177  1  0.66690000  0.19880000  0.89800000  1.0
  N  N178  1  0.84940000  0.19630000  0.61920000  1.0
  N  N179  1  0.90960000  0.05460000  0.38800000  1.0
  N  N180  1  0.10040000  0.54730000  0.11600000  1.0
  N  N181  1  0.16690000  0.69880000  0.89800000  1.0
  N  N182  1  0.34940000  0.69630000  0.61920000  1.0
  N  N183  1  0.40960000  0.55460000  0.38800000  1.0
  N  N184  1  0.39960000  0.04730000  0.38400000  1.0
  N  N185  1  0.33310000  0.19880000  0.60200000  1.0
  N  N186  1  0.15060000  0.19630000  0.88080000  1.0
  N  N187  1  0.09040000  0.05460000  0.11200000  1.0
  N  N188  1  0.89960000  0.54730000  0.38400000  1.0
  N  N189  1  0.83310000  0.69880000  0.60200000  1.0
  N  N190  1  0.65060000  0.69630000  0.88080000  1.0
  N  N191  1  0.59040000  0.55460000  0.11200000  1.0
  N  N192  1  0.39960000  0.95270000  0.88400000  1.0
  N  N193  1  0.33310000  0.80120000  0.10200000  1.0
  N  N194  1  0.15060000  0.80370000  0.38080000  1.0
  N  N195  1  0.09040000  0.94540000  0.61200000  1.0
  N  N196  1  0.89960000  0.45270000  0.88400000  1.0
  N  N197  1  0.83310000  0.30120000  0.10200000  1.0
  N  N198  1  0.65060000  0.30370000  0.38080000  1.0
  N  N199  1  0.59040000  0.44540000  0.61200000  1.0
  N  N200  1  0.60040000  0.95270000  0.61600000  1.0
  N  N201  1  0.66690000  0.80120000  0.39800000  1.0
  N  N202  1  0.84940000  0.80370000  0.11920000  1.0
  N  N203  1  0.90960000  0.94540000  0.88800000  1.0
  N  N204  1  0.10040000  0.45270000  0.61600000  1.0
  N  N205  1  0.16690000  0.30120000  0.39800000  1.0
  N  N206  1  0.34940000  0.30370000  0.11920000  1.0
  N  N207  1  0.40960000  0.44540000  0.88800000  1.0
