# generated using pymatgen
data_AgH8(CN)2
_symmetry_space_group_name_H-M   'P 1'
_cell_length_a   20.26400000
_cell_length_b   19.64000000
_cell_length_c   5.97570000
_cell_angle_alpha   90.00000000
_cell_angle_beta   113.84000000
_cell_angle_gamma   90.00000000
_symmetry_Int_Tables_number   1
_chemical_formula_structural   AgH8(CN)2
_chemical_formula_sum   'Ag16 H128 C32 N32'
_cell_volume   2175.32196823
_cell_formula_units_Z   16
loop_
 _symmetry_equiv_pos_site_id
 _symmetry_equiv_pos_as_xyz
  1  'x, y, z'
loop_
 _atom_site_type_symbol
 _atom_site_label
 _atom_site_symmetry_multiplicity
 _atom_site_fract_x
 _atom_site_fract_y
 _atom_site_fract_z
 _atom_site_occupancy
  Ag  Ag0  1  0.50000000  0.00000000  0.00000000  1.0
  Ag  Ag1  1  0.00000000  0.50000000  0.00000000  1.0
  Ag  Ag2  1  0.50000000  0.00000000  0.50000000  1.0
  Ag  Ag3  1  0.00000000  0.50000000  0.50000000  1.0
  Ag  Ag4  1  0.75000000  0.25000000  0.00000000  1.0
  Ag  Ag5  1  0.25000000  0.25000000  0.50000000  1.0
  Ag  Ag6  1  0.25000000  0.75000000  0.00000000  1.0
  Ag  Ag7  1  0.75000000  0.75000000  0.50000000  1.0
  Ag  Ag8  1  0.75000000  0.25000000  0.50000000  1.0
  Ag  Ag9  1  0.25000000  0.25000000  0.00000000  1.0
  Ag  Ag10  1  0.25000000  0.75000000  0.50000000  1.0
  Ag  Ag11  1  0.75000000  0.75000000  0.00000000  1.0
  Ag  Ag12  1  0.00000000  0.00000000  0.50000000  1.0
  Ag  Ag13  1  0.50000000  0.50000000  0.50000000  1.0
  Ag  Ag14  1  0.00000000  0.00000000  0.00000000  1.0
  Ag  Ag15  1  0.50000000  0.50000000  0.00000000  1.0
  H  H16  1  0.61700000  0.05880000  0.28900000  1.0
  H  H17  1  0.63660000  0.01510000  0.12560000  1.0
  H  H18  1  0.61000000  0.23920000  0.90260000  1.0
  H  H19  1  0.62220000  0.19650000  0.72110000  1.0
  H  H20  1  0.88590000  0.22750000  0.61310000  1.0
  H  H21  1  0.86590000  0.18580000  0.77960000  1.0
  H  H22  1  0.89020000  0.06830000  0.22560000  1.0
  H  H23  1  0.86600000  0.02330000  0.37280000  1.0
  H  H24  1  0.54720000  0.12480000  0.95040000  1.0
  H  H25  1  0.58200000  0.08280000  0.80250000  1.0
  H  H26  1  0.66280000  0.16480000  0.20900000  1.0
  H  H27  1  0.69570000  0.12500000  0.05090000  1.0
  H  H28  1  0.82400000  0.15720000  0.29020000  1.0
  H  H29  1  0.80150000  0.11250000  0.46800000  1.0
  H  H30  1  0.94830000  0.13920000  0.55620000  1.0
  H  H31  1  0.92340000  0.09040000  0.71750000  1.0
  H  H32  1  0.11700000  0.55880000  0.28900000  1.0
  H  H33  1  0.13660000  0.51510000  0.12560000  1.0
  H  H34  1  0.11000000  0.73920000  0.90260000  1.0
  H  H35  1  0.12220000  0.69650000  0.72110000  1.0
  H  H36  1  0.38590000  0.72750000  0.61310000  1.0
  H  H37  1  0.36590000  0.68580000  0.77960000  1.0
  H  H38  1  0.39020000  0.56830000  0.22560000  1.0
  H  H39  1  0.36600000  0.52330000  0.37280000  1.0
  H  H40  1  0.04720000  0.62480000  0.95040000  1.0
  H  H41  1  0.08200000  0.58280000  0.80250000  1.0
  H  H42  1  0.16280000  0.66480000  0.20900000  1.0
  H  H43  1  0.19570000  0.62500000  0.05090000  1.0
  H  H44  1  0.32400000  0.65720000  0.29020000  1.0
  H  H45  1  0.30150000  0.61250000  0.46800000  1.0
  H  H46  1  0.44830000  0.63920000  0.55620000  1.0
  H  H47  1  0.42340000  0.59040000  0.71750000  1.0
  H  H48  1  0.38300000  0.05880000  0.21100000  1.0
  H  H49  1  0.36340000  0.01510000  0.37440000  1.0
  H  H50  1  0.39000000  0.23920000  0.59740000  1.0
  H  H51  1  0.37780000  0.19650000  0.77890000  1.0
  H  H52  1  0.11410000  0.22750000  0.88690000  1.0
  H  H53  1  0.13410000  0.18580000  0.72040000  1.0
  H  H54  1  0.10980000  0.06830000  0.27440000  1.0
  H  H55  1  0.13400000  0.02330000  0.12720000  1.0
  H  H56  1  0.45280000  0.12480000  0.54960000  1.0
  H  H57  1  0.41800000  0.08280000  0.69750000  1.0
  H  H58  1  0.33720000  0.16480000  0.29100000  1.0
  H  H59  1  0.30430000  0.12500000  0.44910000  1.0
  H  H60  1  0.17600000  0.15720000  0.20980000  1.0
  H  H61  1  0.19850000  0.11250000  0.03200000  1.0
  H  H62  1  0.05170000  0.13920000  0.94380000  1.0
  H  H63  1  0.07660000  0.09040000  0.78250000  1.0
  H  H64  1  0.88300000  0.55880000  0.21100000  1.0
  H  H65  1  0.86340000  0.51510000  0.37440000  1.0
  H  H66  1  0.89000000  0.73920000  0.59740000  1.0
  H  H67  1  0.87780000  0.69650000  0.77890000  1.0
  H  H68  1  0.61410000  0.72750000  0.88690000  1.0
  H  H69  1  0.63410000  0.68580000  0.72040000  1.0
  H  H70  1  0.60980000  0.56830000  0.27440000  1.0
  H  H71  1  0.63400000  0.52330000  0.12720000  1.0
  H  H72  1  0.95280000  0.62480000  0.54960000  1.0
  H  H73  1  0.91800000  0.58280000  0.69750000  1.0
  H  H74  1  0.83720000  0.66480000  0.29100000  1.0
  H  H75  1  0.80430000  0.62500000  0.44910000  1.0
  H  H76  1  0.67600000  0.65720000  0.20980000  1.0
  H  H77  1  0.69850000  0.61250000  0.03200000  1.0
  H  H78  1  0.55170000  0.63920000  0.94380000  1.0
  H  H79  1  0.57660000  0.59040000  0.78250000  1.0
  H  H80  1  0.38300000  0.94120000  0.71100000  1.0
  H  H81  1  0.36340000  0.98490000  0.87440000  1.0
  H  H82  1  0.39000000  0.76080000  0.09740000  1.0
  H  H83  1  0.37780000  0.80350000  0.27890000  1.0
  H  H84  1  0.11410000  0.77250000  0.38690000  1.0
  H  H85  1  0.13410000  0.81420000  0.22040000  1.0
  H  H86  1  0.10980000  0.93170000  0.77440000  1.0
  H  H87  1  0.13400000  0.97670000  0.62720000  1.0
  H  H88  1  0.45280000  0.87520000  0.04960000  1.0
  H  H89  1  0.41800000  0.91720000  0.19750000  1.0
  H  H90  1  0.33720000  0.83520000  0.79100000  1.0
  H  H91  1  0.30430000  0.87500000  0.94910000  1.0
  H  H92  1  0.17600000  0.84280000  0.70980000  1.0
  H  H93  1  0.19850000  0.88750000  0.53200000  1.0
  H  H94  1  0.05170000  0.86080000  0.44380000  1.0
  H  H95  1  0.07660000  0.90960000  0.28250000  1.0
  H  H96  1  0.88300000  0.44120000  0.71100000  1.0
  H  H97  1  0.86340000  0.48490000  0.87440000  1.0
  H  H98  1  0.89000000  0.26080000  0.09740000  1.0
  H  H99  1  0.87780000  0.30350000  0.27890000  1.0
  H  H100  1  0.61410000  0.27250000  0.38690000  1.0
  H  H101  1  0.63410000  0.31420000  0.22040000  1.0
  H  H102  1  0.60980000  0.43170000  0.77440000  1.0
  H  H103  1  0.63400000  0.47670000  0.62720000  1.0
  H  H104  1  0.95280000  0.37520000  0.04960000  1.0
  H  H105  1  0.91800000  0.41720000  0.19750000  1.0
  H  H106  1  0.83720000  0.33520000  0.79100000  1.0
  H  H107  1  0.80430000  0.37500000  0.94910000  1.0
  H  H108  1  0.67600000  0.34280000  0.70980000  1.0
  H  H109  1  0.69850000  0.38750000  0.53200000  1.0
  H  H110  1  0.55170000  0.36080000  0.44380000  1.0
  H  H111  1  0.57660000  0.40960000  0.28250000  1.0
  H  H112  1  0.61700000  0.94120000  0.78900000  1.0
  H  H113  1  0.63660000  0.98490000  0.62560000  1.0
  H  H114  1  0.61000000  0.76080000  0.40260000  1.0
  H  H115  1  0.62220000  0.80350000  0.22110000  1.0
  H  H116  1  0.88590000  0.77250000  0.11310000  1.0
  H  H117  1  0.86590000  0.81420000  0.27960000  1.0
  H  H118  1  0.89020000  0.93170000  0.72560000  1.0
  H  H119  1  0.86600000  0.97670000  0.87280000  1.0
  H  H120  1  0.54720000  0.87520000  0.45040000  1.0
  H  H121  1  0.58200000  0.91720000  0.30250000  1.0
  H  H122  1  0.66280000  0.83520000  0.70900000  1.0
  H  H123  1  0.69570000  0.87500000  0.55090000  1.0
  H  H124  1  0.82400000  0.84280000  0.79020000  1.0
  H  H125  1  0.80150000  0.88750000  0.96800000  1.0
  H  H126  1  0.94830000  0.86080000  0.05620000  1.0
  H  H127  1  0.92340000  0.90960000  0.21750000  1.0
  H  H128  1  0.11700000  0.44120000  0.78900000  1.0
  H  H129  1  0.13660000  0.48490000  0.62560000  1.0
  H  H130  1  0.11000000  0.26080000  0.40260000  1.0
  H  H131  1  0.12220000  0.30350000  0.22110000  1.0
  H  H132  1  0.38590000  0.27250000  0.11310000  1.0
  H  H133  1  0.36590000  0.31420000  0.27960000  1.0
  H  H134  1  0.39020000  0.43170000  0.72560000  1.0
  H  H135  1  0.36600000  0.47670000  0.87280000  1.0
  H  H136  1  0.04720000  0.37520000  0.45040000  1.0
  H  H137  1  0.08200000  0.41720000  0.30250000  1.0
  H  H138  1  0.16280000  0.33520000  0.70900000  1.0
  H  H139  1  0.19570000  0.37500000  0.55090000  1.0
  H  H140  1  0.32400000  0.34280000  0.79020000  1.0
  H  H141  1  0.30150000  0.38750000  0.96800000  1.0
  H  H142  1  0.44830000  0.36080000  0.05620000  1.0
  H  H143  1  0.42340000  0.40960000  0.21750000  1.0
  C  C144  1  0.59020000  0.10050000  0.96300000  1.0
  C  C145  1  0.65320000  0.14900000  0.04500000  1.0
  C  C146  1  0.83830000  0.14230000  0.45800000  1.0
  C  C147  1  0.91100000  0.10790000  0.55400000  1.0
  C  C148  1  0.09020000  0.60050000  0.96300000  1.0
  C  C149  1  0.15320000  0.64900000  0.04500000  1.0
  C  C150  1  0.33830000  0.64230000  0.45800000  1.0
  C  C151  1  0.41100000  0.60790000  0.55400000  1.0
  C  C152  1  0.40980000  0.10050000  0.53700000  1.0
  C  C153  1  0.34680000  0.14900000  0.45500000  1.0
  C  C154  1  0.16170000  0.14230000  0.04200000  1.0
  C  C155  1  0.08900000  0.10790000  0.94600000  1.0
  C  C156  1  0.90980000  0.60050000  0.53700000  1.0
  C  C157  1  0.84680000  0.64900000  0.45500000  1.0
  C  C158  1  0.66170000  0.64230000  0.04200000  1.0
  C  C159  1  0.58900000  0.60790000  0.94600000  1.0
  C  C160  1  0.40980000  0.89950000  0.03700000  1.0
  C  C161  1  0.34680000  0.85100000  0.95500000  1.0
  C  C162  1  0.16170000  0.85770000  0.54200000  1.0
  C  C163  1  0.08900000  0.89210000  0.44600000  1.0
  C  C164  1  0.90980000  0.39950000  0.03700000  1.0
  C  C165  1  0.84680000  0.35100000  0.95500000  1.0
  C  C166  1  0.66170000  0.35770000  0.54200000  1.0
  C  C167  1  0.58900000  0.39210000  0.44600000  1.0
  C  C168  1  0.59020000  0.89950000  0.46300000  1.0
  C  C169  1  0.65320000  0.85100000  0.54500000  1.0
  C  C170  1  0.83830000  0.85770000  0.95800000  1.0
  C  C171  1  0.91100000  0.89210000  0.05400000  1.0
  C  C172  1  0.09020000  0.39950000  0.46300000  1.0
  C  C173  1  0.15320000  0.35100000  0.54500000  1.0
  C  C174  1  0.33830000  0.35770000  0.95800000  1.0
  C  C175  1  0.41100000  0.39210000  0.05400000  1.0
  N  N176  1  0.60330000  0.04410000  0.13400000  1.0
  N  N177  1  0.64000000  0.20910000  0.87900000  1.0
  N  N178  1  0.85180000  0.19980000  0.62400000  1.0
  N  N179  1  0.90150000  0.05160000  0.37690000  1.0
  N  N180  1  0.10330000  0.54410000  0.13400000  1.0
  N  N181  1  0.14000000  0.70910000  0.87900000  1.0
  N  N182  1  0.35180000  0.69980000  0.62400000  1.0
  N  N183  1  0.40150000  0.55160000  0.37690000  1.0
  N  N184  1  0.39670000  0.04410000  0.36600000  1.0
  N  N185  1  0.36000000  0.20910000  0.62100000  1.0
  N  N186  1  0.14820000  0.19980000  0.87600000  1.0
  N  N187  1  0.09850000  0.05160000  0.12310000  1.0
  N  N188  1  0.89670000  0.54410000  0.36600000  1.0
  N  N189  1  0.86000000  0.70910000  0.62100000  1.0
  N  N190  1  0.64820000  0.69980000  0.87600000  1.0
  N  N191  1  0.59850000  0.55160000  0.12310000  1.0
  N  N192  1  0.39670000  0.95590000  0.86600000  1.0
  N  N193  1  0.36000000  0.79090000  0.12100000  1.0
  N  N194  1  0.14820000  0.80020000  0.37600000  1.0
  N  N195  1  0.09850000  0.94840000  0.62310000  1.0
  N  N196  1  0.89670000  0.45590000  0.86600000  1.0
  N  N197  1  0.86000000  0.29090000  0.12100000  1.0
  N  N198  1  0.64820000  0.30020000  0.37600000  1.0
  N  N199  1  0.59850000  0.44840000  0.62310000  1.0
  N  N200  1  0.60330000  0.95590000  0.63400000  1.0
  N  N201  1  0.64000000  0.79090000  0.37900000  1.0
  N  N202  1  0.85180000  0.80020000  0.12400000  1.0
  N  N203  1  0.90150000  0.94840000  0.87690000  1.0
  N  N204  1  0.10330000  0.45590000  0.63400000  1.0
  N  N205  1  0.14000000  0.29090000  0.37900000  1.0
  N  N206  1  0.35180000  0.30020000  0.12400000  1.0
  N  N207  1  0.40150000  0.44840000  0.87690000  1.0
