# generated using pymatgen
data_AgH8(CN)2
_symmetry_space_group_name_H-M   'P 1'
_cell_length_a   10.23630000
_cell_length_b   10.65040000
_cell_length_c   6.22250000
_cell_angle_alpha   90.00000000
_cell_angle_beta   114.52200000
_cell_angle_gamma   90.00000000
_symmetry_Int_Tables_number   1
_chemical_formula_structural   AgH8(CN)2
_chemical_formula_sum   'Ag4 H32 C8 N8'
_cell_volume   617.19259111
_cell_formula_units_Z   4
loop_
 _symmetry_equiv_pos_site_id
 _symmetry_equiv_pos_as_xyz
  1  'x, y, z'
loop_
 _atom_site_type_symbol
 _atom_site_label
 _atom_site_symmetry_multiplicity
 _atom_site_fract_x
 _atom_site_fract_y
 _atom_site_fract_z
 _atom_site_occupancy
  Ag  Ag0  1  0.50000000  0.00000000  0.50000000  1.0
  Ag  Ag1  1  0.00000000  0.50000000  0.50000000  1.0
  Ag  Ag2  1  0.50000000  0.00000000  0.00000000  1.0
  Ag  Ag3  1  0.00000000  0.50000000  0.00000000  1.0
  H  H4  1  0.40090000  0.26570000  0.56960000  1.0
  H  H5  1  0.33300000  0.17420000  0.70020000  1.0
  H  H6  1  0.29490000  0.14350000  0.23580000  1.0
  H  H7  1  0.23400000  0.05780000  0.35950000  1.0
  H  H8  1  0.90090000  0.76570000  0.56960000  1.0
  H  H9  1  0.83300000  0.67420000  0.70020000  1.0
  H  H10  1  0.79490000  0.64350000  0.23580000  1.0
  H  H11  1  0.73400000  0.55780000  0.35950000  1.0
  H  H12  1  0.59910000  0.26570000  0.93040000  1.0
  H  H13  1  0.66700000  0.17420000  0.79980000  1.0
  H  H14  1  0.70510000  0.14350000  0.26420000  1.0
  H  H15  1  0.76600000  0.05780000  0.14050000  1.0
  H  H16  1  0.09910000  0.76570000  0.93040000  1.0
  H  H17  1  0.16700000  0.67420000  0.79980000  1.0
  H  H18  1  0.20510000  0.64350000  0.26420000  1.0
  H  H19  1  0.26600000  0.55780000  0.14050000  1.0
  H  H20  1  0.59910000  0.73430000  0.43040000  1.0
  H  H21  1  0.66700000  0.82580000  0.29980000  1.0
  H  H22  1  0.70510000  0.85650000  0.76420000  1.0
  H  H23  1  0.76600000  0.94220000  0.64050000  1.0
  H  H24  1  0.09910000  0.23430000  0.43040000  1.0
  H  H25  1  0.16700000  0.32580000  0.29980000  1.0
  H  H26  1  0.20510000  0.35650000  0.76420000  1.0
  H  H27  1  0.26600000  0.44220000  0.64050000  1.0
  H  H28  1  0.40090000  0.73430000  0.06960000  1.0
  H  H29  1  0.33300000  0.82580000  0.20020000  1.0
  H  H30  1  0.29490000  0.85650000  0.73580000  1.0
  H  H31  1  0.23400000  0.94220000  0.85950000  1.0
  H  H32  1  0.90090000  0.23430000  0.06960000  1.0
  H  H33  1  0.83300000  0.32580000  0.20020000  1.0
  H  H34  1  0.79490000  0.35650000  0.73580000  1.0
  H  H35  1  0.73400000  0.44220000  0.85950000  1.0
  C  C36  1  0.31790000  0.21090000  0.54550000  1.0
  C  C37  1  0.81790000  0.71090000  0.54550000  1.0
  C  C38  1  0.68210000  0.21090000  0.95450000  1.0
  C  C39  1  0.18210000  0.71090000  0.95450000  1.0
  C  C40  1  0.68210000  0.78910000  0.45450000  1.0
  C  C41  1  0.18210000  0.28910000  0.45450000  1.0
  C  C42  1  0.31790000  0.78910000  0.04550000  1.0
  C  C43  1  0.81790000  0.28910000  0.04550000  1.0
  N  N44  1  0.31070000  0.10910000  0.38010000  1.0
  N  N45  1  0.81070000  0.60910000  0.38010000  1.0
  N  N46  1  0.68930000  0.10910000  0.11990000  1.0
  N  N47  1  0.18930000  0.60910000  0.11990000  1.0
  N  N48  1  0.68930000  0.89090000  0.61990000  1.0
  N  N49  1  0.18930000  0.39090000  0.61990000  1.0
  N  N50  1  0.31070000  0.89090000  0.88010000  1.0
  N  N51  1  0.81070000  0.39090000  0.88010000  1.0
