# generated using pymatgen
data_AgH8(CN)2
_symmetry_space_group_name_H-M   'P 1'
_cell_length_a   20.86200000
_cell_length_b   19.68200000
_cell_length_c   6.08900000
_cell_angle_alpha   90.00000000
_cell_angle_beta   114.27100000
_cell_angle_gamma   90.00000000
_symmetry_Int_Tables_number   1
_chemical_formula_structural   AgH8(CN)2
_chemical_formula_sum   'Ag16 H128 C32 N32'
_cell_volume   2279.19200104
_cell_formula_units_Z   16
loop_
 _symmetry_equiv_pos_site_id
 _symmetry_equiv_pos_as_xyz
  1  'x, y, z'
loop_
 _atom_site_type_symbol
 _atom_site_label
 _atom_site_symmetry_multiplicity
 _atom_site_fract_x
 _atom_site_fract_y
 _atom_site_fract_z
 _atom_site_occupancy
  Ag  Ag0  1  0.50000000  0.00000000  0.00000000  1.0
  Ag  Ag1  1  0.00000000  0.50000000  0.00000000  1.0
  Ag  Ag2  1  0.50000000  0.00000000  0.50000000  1.0
  Ag  Ag3  1  0.00000000  0.50000000  0.50000000  1.0
  Ag  Ag4  1  0.75000000  0.25000000  0.00000000  1.0
  Ag  Ag5  1  0.25000000  0.25000000  0.50000000  1.0
  Ag  Ag6  1  0.25000000  0.75000000  0.00000000  1.0
  Ag  Ag7  1  0.75000000  0.75000000  0.50000000  1.0
  Ag  Ag8  1  0.75000000  0.25000000  0.50000000  1.0
  Ag  Ag9  1  0.25000000  0.25000000  0.00000000  1.0
  Ag  Ag10  1  0.25000000  0.75000000  0.50000000  1.0
  Ag  Ag11  1  0.75000000  0.75000000  0.00000000  1.0
  Ag  Ag12  1  0.00000000  0.00000000  0.50000000  1.0
  Ag  Ag13  1  0.50000000  0.50000000  0.50000000  1.0
  Ag  Ag14  1  0.00000000  0.00000000  0.00000000  1.0
  Ag  Ag15  1  0.50000000  0.50000000  0.00000000  1.0
  H  H16  1  0.62630000  0.06150000  0.29400000  1.0
  H  H17  1  0.64320000  0.01760000  0.12960000  1.0
  H  H18  1  0.61670000  0.22980000  0.85500000  1.0
  H  H19  1  0.63990000  0.18750000  0.70240000  1.0
  H  H20  1  0.88850000  0.22630000  0.64140000  1.0
  H  H21  1  0.86550000  0.17980000  0.78230000  1.0
  H  H22  1  0.90480000  0.07860000  0.24070000  1.0
  H  H23  1  0.87280000  0.03090000  0.34890000  1.0
  H  H24  1  0.56210000  0.13220000  0.98490000  1.0
  H  H25  1  0.58070000  0.08560000  0.81030000  1.0
  H  H26  1  0.68090000  0.16200000  0.18770000  1.0
  H  H27  1  0.69970000  0.11520000  0.01450000  1.0
  H  H28  1  0.83470000  0.16270000  0.30070000  1.0
  H  H29  1  0.80730000  0.11320000  0.44810000  1.0
  H  H30  1  0.95300000  0.14140000  0.58760000  1.0
  H  H31  1  0.92350000  0.08790000  0.71630000  1.0
  H  H32  1  0.12630000  0.56150000  0.29400000  1.0
  H  H33  1  0.14320000  0.51760000  0.12960000  1.0
  H  H34  1  0.11670000  0.72980000  0.85500000  1.0
  H  H35  1  0.13990000  0.68750000  0.70240000  1.0
  H  H36  1  0.38850000  0.72630000  0.64140000  1.0
  H  H37  1  0.36550000  0.67980000  0.78230000  1.0
  H  H38  1  0.40480000  0.57860000  0.24070000  1.0
  H  H39  1  0.37280000  0.53090000  0.34890000  1.0
  H  H40  1  0.06210000  0.63220000  0.98490000  1.0
  H  H41  1  0.08070000  0.58560000  0.81030000  1.0
  H  H42  1  0.18090000  0.66200000  0.18770000  1.0
  H  H43  1  0.19970000  0.61520000  0.01450000  1.0
  H  H44  1  0.33470000  0.66270000  0.30070000  1.0
  H  H45  1  0.30730000  0.61320000  0.44810000  1.0
  H  H46  1  0.45300000  0.64140000  0.58760000  1.0
  H  H47  1  0.42350000  0.58790000  0.71630000  1.0
  H  H48  1  0.37370000  0.06150000  0.20600000  1.0
  H  H49  1  0.35680000  0.01760000  0.37040000  1.0
  H  H50  1  0.38330000  0.22980000  0.64500000  1.0
  H  H51  1  0.36010000  0.18750000  0.79760000  1.0
  H  H52  1  0.11150000  0.22630000  0.85860000  1.0
  H  H53  1  0.13450000  0.17980000  0.71770000  1.0
  H  H54  1  0.09520000  0.07860000  0.25930000  1.0
  H  H55  1  0.12720000  0.03090000  0.15110000  1.0
  H  H56  1  0.43790000  0.13220000  0.51510000  1.0
  H  H57  1  0.41930000  0.08560000  0.68970000  1.0
  H  H58  1  0.31910000  0.16200000  0.31230000  1.0
  H  H59  1  0.30030000  0.11520000  0.48550000  1.0
  H  H60  1  0.16530000  0.16270000  0.19930000  1.0
  H  H61  1  0.19270000  0.11320000  0.05190000  1.0
  H  H62  1  0.04700000  0.14140000  0.91240000  1.0
  H  H63  1  0.07650000  0.08790000  0.78370000  1.0
  H  H64  1  0.87370000  0.56150000  0.20600000  1.0
  H  H65  1  0.85680000  0.51760000  0.37040000  1.0
  H  H66  1  0.88330000  0.72980000  0.64500000  1.0
  H  H67  1  0.86010000  0.68750000  0.79760000  1.0
  H  H68  1  0.61150000  0.72630000  0.85860000  1.0
  H  H69  1  0.63450000  0.67980000  0.71770000  1.0
  H  H70  1  0.59520000  0.57860000  0.25930000  1.0
  H  H71  1  0.62720000  0.53090000  0.15110000  1.0
  H  H72  1  0.93790000  0.63220000  0.51510000  1.0
  H  H73  1  0.91930000  0.58560000  0.68970000  1.0
  H  H74  1  0.81910000  0.66200000  0.31230000  1.0
  H  H75  1  0.80030000  0.61520000  0.48550000  1.0
  H  H76  1  0.66530000  0.66270000  0.19930000  1.0
  H  H77  1  0.69270000  0.61320000  0.05190000  1.0
  H  H78  1  0.54700000  0.64140000  0.91240000  1.0
  H  H79  1  0.57650000  0.58790000  0.78370000  1.0
  H  H80  1  0.37370000  0.93850000  0.70600000  1.0
  H  H81  1  0.35680000  0.98240000  0.87040000  1.0
  H  H82  1  0.38330000  0.77020000  0.14500000  1.0
  H  H83  1  0.36010000  0.81250000  0.29760000  1.0
  H  H84  1  0.11150000  0.77370000  0.35860000  1.0
  H  H85  1  0.13450000  0.82020000  0.21770000  1.0
  H  H86  1  0.09520000  0.92140000  0.75930000  1.0
  H  H87  1  0.12720000  0.96910000  0.65110000  1.0
  H  H88  1  0.43790000  0.86780000  0.01510000  1.0
  H  H89  1  0.41930000  0.91440000  0.18970000  1.0
  H  H90  1  0.31910000  0.83800000  0.81230000  1.0
  H  H91  1  0.30030000  0.88480000  0.98550000  1.0
  H  H92  1  0.16530000  0.83730000  0.69930000  1.0
  H  H93  1  0.19270000  0.88680000  0.55190000  1.0
  H  H94  1  0.04700000  0.85860000  0.41240000  1.0
  H  H95  1  0.07650000  0.91210000  0.28370000  1.0
  H  H96  1  0.87370000  0.43850000  0.70600000  1.0
  H  H97  1  0.85680000  0.48240000  0.87040000  1.0
  H  H98  1  0.88330000  0.27020000  0.14500000  1.0
  H  H99  1  0.86010000  0.31250000  0.29760000  1.0
  H  H100  1  0.61150000  0.27370000  0.35860000  1.0
  H  H101  1  0.63450000  0.32020000  0.21770000  1.0
  H  H102  1  0.59520000  0.42140000  0.75930000  1.0
  H  H103  1  0.62720000  0.46910000  0.65110000  1.0
  H  H104  1  0.93790000  0.36780000  0.01510000  1.0
  H  H105  1  0.91930000  0.41440000  0.18970000  1.0
  H  H106  1  0.81910000  0.33800000  0.81230000  1.0
  H  H107  1  0.80030000  0.38480000  0.98550000  1.0
  H  H108  1  0.66530000  0.33730000  0.69930000  1.0
  H  H109  1  0.69270000  0.38680000  0.55190000  1.0
  H  H110  1  0.54700000  0.35860000  0.41240000  1.0
  H  H111  1  0.57650000  0.41210000  0.28370000  1.0
  H  H112  1  0.62630000  0.93850000  0.79400000  1.0
  H  H113  1  0.64320000  0.98240000  0.62960000  1.0
  H  H114  1  0.61670000  0.77020000  0.35500000  1.0
  H  H115  1  0.63990000  0.81250000  0.20240000  1.0
  H  H116  1  0.88850000  0.77370000  0.14140000  1.0
  H  H117  1  0.86550000  0.82020000  0.28230000  1.0
  H  H118  1  0.90480000  0.92140000  0.74070000  1.0
  H  H119  1  0.87280000  0.96910000  0.84890000  1.0
  H  H120  1  0.56210000  0.86780000  0.48490000  1.0
  H  H121  1  0.58070000  0.91440000  0.31030000  1.0
  H  H122  1  0.68090000  0.83800000  0.68770000  1.0
  H  H123  1  0.69970000  0.88480000  0.51450000  1.0
  H  H124  1  0.83470000  0.83730000  0.80070000  1.0
  H  H125  1  0.80730000  0.88680000  0.94810000  1.0
  H  H126  1  0.95300000  0.85860000  0.08760000  1.0
  H  H127  1  0.92350000  0.91210000  0.21630000  1.0
  H  H128  1  0.12630000  0.43850000  0.79400000  1.0
  H  H129  1  0.14320000  0.48240000  0.62960000  1.0
  H  H130  1  0.11670000  0.27020000  0.35500000  1.0
  H  H131  1  0.13990000  0.31250000  0.20240000  1.0
  H  H132  1  0.38850000  0.27370000  0.14140000  1.0
  H  H133  1  0.36550000  0.32020000  0.28230000  1.0
  H  H134  1  0.40480000  0.42140000  0.74070000  1.0
  H  H135  1  0.37280000  0.46910000  0.84890000  1.0
  H  H136  1  0.06210000  0.36780000  0.48490000  1.0
  H  H137  1  0.08070000  0.41440000  0.31030000  1.0
  H  H138  1  0.18090000  0.33800000  0.68770000  1.0
  H  H139  1  0.19970000  0.38480000  0.51450000  1.0
  H  H140  1  0.33470000  0.33730000  0.80070000  1.0
  H  H141  1  0.30730000  0.38680000  0.94810000  1.0
  H  H142  1  0.45300000  0.35860000  0.08760000  1.0
  H  H143  1  0.42350000  0.41210000  0.21630000  1.0
  C  C144  1  0.59820000  0.10320000  0.97300000  1.0
  C  C145  1  0.66360000  0.14440000  0.02500000  1.0
  C  C146  1  0.84470000  0.14400000  0.45900000  1.0
  C  C147  1  0.91530000  0.10930000  0.56400000  1.0
  C  C148  1  0.09820000  0.60320000  0.97300000  1.0
  C  C149  1  0.16360000  0.64440000  0.02500000  1.0
  C  C150  1  0.34470000  0.64400000  0.45900000  1.0
  C  C151  1  0.41530000  0.60930000  0.56400000  1.0
  C  C152  1  0.40180000  0.10320000  0.52700000  1.0
  C  C153  1  0.33640000  0.14440000  0.47500000  1.0
  C  C154  1  0.15530000  0.14400000  0.04100000  1.0
  C  C155  1  0.08470000  0.10930000  0.93600000  1.0
  C  C156  1  0.90180000  0.60320000  0.52700000  1.0
  C  C157  1  0.83640000  0.64440000  0.47500000  1.0
  C  C158  1  0.65530000  0.64400000  0.04100000  1.0
  C  C159  1  0.58470000  0.60930000  0.93600000  1.0
  C  C160  1  0.40180000  0.89680000  0.02700000  1.0
  C  C161  1  0.33640000  0.85560000  0.97500000  1.0
  C  C162  1  0.15530000  0.85600000  0.54100000  1.0
  C  C163  1  0.08470000  0.89070000  0.43600000  1.0
  C  C164  1  0.90180000  0.39680000  0.02700000  1.0
  C  C165  1  0.83640000  0.35560000  0.97500000  1.0
  C  C166  1  0.65530000  0.35600000  0.54100000  1.0
  C  C167  1  0.58470000  0.39070000  0.43600000  1.0
  C  C168  1  0.59820000  0.89680000  0.47300000  1.0
  C  C169  1  0.66360000  0.85560000  0.52500000  1.0
  C  C170  1  0.84470000  0.85600000  0.95900000  1.0
  C  C171  1  0.91530000  0.89070000  0.06400000  1.0
  C  C172  1  0.09820000  0.39680000  0.47300000  1.0
  C  C173  1  0.16360000  0.35560000  0.52500000  1.0
  C  C174  1  0.34470000  0.35600000  0.95900000  1.0
  C  C175  1  0.41530000  0.39070000  0.06400000  1.0
  N  N176  1  0.61160000  0.04700000  0.14100000  1.0
  N  N177  1  0.65090000  0.20210000  0.85400000  1.0
  N  N178  1  0.85430000  0.19740000  0.63500000  1.0
  N  N179  1  0.91040000  0.05780000  0.37900000  1.0
  N  N180  1  0.11160000  0.54700000  0.14100000  1.0
  N  N181  1  0.15090000  0.70210000  0.85400000  1.0
  N  N182  1  0.35430000  0.69740000  0.63500000  1.0
  N  N183  1  0.41040000  0.55780000  0.37900000  1.0
  N  N184  1  0.38840000  0.04700000  0.35900000  1.0
  N  N185  1  0.34910000  0.20210000  0.64600000  1.0
  N  N186  1  0.14570000  0.19740000  0.86500000  1.0
  N  N187  1  0.08960000  0.05780000  0.12100000  1.0
  N  N188  1  0.88840000  0.54700000  0.35900000  1.0
  N  N189  1  0.84910000  0.70210000  0.64600000  1.0
  N  N190  1  0.64570000  0.69740000  0.86500000  1.0
  N  N191  1  0.58960000  0.55780000  0.12100000  1.0
  N  N192  1  0.38840000  0.95300000  0.85900000  1.0
  N  N193  1  0.34910000  0.79790000  0.14600000  1.0
  N  N194  1  0.14570000  0.80260000  0.36500000  1.0
  N  N195  1  0.08960000  0.94220000  0.62100000  1.0
  N  N196  1  0.88840000  0.45300000  0.85900000  1.0
  N  N197  1  0.84910000  0.29790000  0.14600000  1.0
  N  N198  1  0.64570000  0.30260000  0.36500000  1.0
  N  N199  1  0.58960000  0.44220000  0.62100000  1.0
  N  N200  1  0.61160000  0.95300000  0.64100000  1.0
  N  N201  1  0.65090000  0.79790000  0.35400000  1.0
  N  N202  1  0.85430000  0.80260000  0.13500000  1.0
  N  N203  1  0.91040000  0.94220000  0.87900000  1.0
  N  N204  1  0.11160000  0.45300000  0.64100000  1.0
  N  N205  1  0.15090000  0.29790000  0.35400000  1.0
  N  N206  1  0.35430000  0.30260000  0.13500000  1.0
  N  N207  1  0.41040000  0.44220000  0.87900000  1.0
