# generated using pymatgen
data_Zn2Mo6H4C6NO14
_symmetry_space_group_name_H-M   'P 1'
_cell_length_a   25.68600000
_cell_length_b   31.77000000
_cell_length_c   25.12900000
_cell_angle_alpha   90.00000000
_cell_angle_beta   90.00000000
_cell_angle_gamma   90.00000000
_symmetry_Int_Tables_number   1
_chemical_formula_structural   Zn2Mo6H4C6NO14
_chemical_formula_sum   'Zn32 Mo96 H64 C96 N16 O224'
_cell_volume   20506.37520438
_cell_formula_units_Z   16
loop_
 _symmetry_equiv_pos_site_id
 _symmetry_equiv_pos_as_xyz
  1  'x, y, z'
loop_
 _atom_site_type_symbol
 _atom_site_label
 _atom_site_symmetry_multiplicity
 _atom_site_fract_x
 _atom_site_fract_y
 _atom_site_fract_z
 _atom_site_occupancy
  Zn  Zn0  1  0.23562000  0.09949000  0.31447000  1.0
  Zn  Zn1  1  0.27970000  0.01695000  0.52239000  1.0
  Zn  Zn2  1  0.40608000  0.15316000  0.46173000  1.0
  Zn  Zn3  1  0.18201000  0.18692000  0.50137000  1.0
  Zn  Zn4  1  0.73562000  0.40051000  0.68553000  1.0
  Zn  Zn5  1  0.77970000  0.48305000  0.47761000  1.0
  Zn  Zn6  1  0.90608000  0.34684000  0.53827000  1.0
  Zn  Zn7  1  0.68201000  0.31308000  0.49863000  1.0
  Zn  Zn8  1  0.73562000  0.59949000  0.18553000  1.0
  Zn  Zn9  1  0.77970000  0.51695000  0.97761000  1.0
  Zn  Zn10  1  0.90608000  0.65316000  0.03827000  1.0
  Zn  Zn11  1  0.68201000  0.68692000  0.99863000  1.0
  Zn  Zn12  1  0.23562000  0.90051000  0.81447000  1.0
  Zn  Zn13  1  0.27970000  0.98305000  0.02239000  1.0
  Zn  Zn14  1  0.40608000  0.84684000  0.96173000  1.0
  Zn  Zn15  1  0.18201000  0.81308000  0.00137000  1.0
  Zn  Zn16  1  0.26438000  0.40051000  0.81447000  1.0
  Zn  Zn17  1  0.22030000  0.48305000  0.02239000  1.0
  Zn  Zn18  1  0.09392000  0.34684000  0.96173000  1.0
  Zn  Zn19  1  0.31799000  0.31308000  0.00137000  1.0
  Zn  Zn20  1  0.76438000  0.09949000  0.18553000  1.0
  Zn  Zn21  1  0.72030000  0.01695000  0.97761000  1.0
  Zn  Zn22  1  0.59392000  0.15316000  0.03827000  1.0
  Zn  Zn23  1  0.81799000  0.18692000  0.99863000  1.0
  Zn  Zn24  1  0.76438000  0.90051000  0.68553000  1.0
  Zn  Zn25  1  0.72030000  0.98305000  0.47761000  1.0
  Zn  Zn26  1  0.59392000  0.84684000  0.53827000  1.0
  Zn  Zn27  1  0.81799000  0.81308000  0.49863000  1.0
  Zn  Zn28  1  0.26438000  0.59949000  0.31447000  1.0
  Zn  Zn29  1  0.22030000  0.51695000  0.52239000  1.0
  Zn  Zn30  1  0.09392000  0.65316000  0.46173000  1.0
  Zn  Zn31  1  0.31799000  0.68692000  0.50137000  1.0
  Mo  Mo32  1  0.19570000  0.02305000  0.40609000  1.0
  Mo  Mo33  1  0.33500000  0.17227000  0.33934000  1.0
  Mo  Mo34  1  0.20759000  0.19747000  0.36732000  1.0
  Mo  Mo35  1  0.16164000  0.07993000  0.52642000  1.0
  Mo  Mo36  1  0.29985000  0.22884000  0.45956000  1.0
  Mo  Mo37  1  0.39511000  0.04403000  0.46300000  1.0
  Mo  Mo38  1  0.29508000  0.01112000  0.38190000  1.0
  Mo  Mo39  1  0.31215000  0.19319000  0.55378000  1.0
  Mo  Mo40  1  0.36471000  0.09447000  0.56939000  1.0
  Mo  Mo41  1  0.37327000  0.09513000  0.34472000  1.0
  Mo  Mo42  1  0.23416000  0.10919000  0.59101000  1.0
  Mo  Mo43  1  0.13532000  0.12010000  0.40217000  1.0
  Mo  Mo44  1  0.69570000  0.47695000  0.59391000  1.0
  Mo  Mo45  1  0.83500000  0.32773000  0.66066000  1.0
  Mo  Mo46  1  0.70759000  0.30253000  0.63268000  1.0
  Mo  Mo47  1  0.66164000  0.42007000  0.47358000  1.0
  Mo  Mo48  1  0.79985000  0.27116000  0.54044000  1.0
  Mo  Mo49  1  0.89511000  0.45597000  0.53700000  1.0
  Mo  Mo50  1  0.79508000  0.48888000  0.61810000  1.0
  Mo  Mo51  1  0.81215000  0.30681000  0.44622000  1.0
  Mo  Mo52  1  0.86471000  0.40553000  0.43061000  1.0
  Mo  Mo53  1  0.87327000  0.40487000  0.65528000  1.0
  Mo  Mo54  1  0.73416000  0.39081000  0.40899000  1.0
  Mo  Mo55  1  0.63532000  0.37990000  0.59783000  1.0
  Mo  Mo56  1  0.69570000  0.52305000  0.09391000  1.0
  Mo  Mo57  1  0.83500000  0.67227000  0.16066000  1.0
  Mo  Mo58  1  0.70759000  0.69747000  0.13268000  1.0
  Mo  Mo59  1  0.66164000  0.57993000  0.97358000  1.0
  Mo  Mo60  1  0.79985000  0.72884000  0.04044000  1.0
  Mo  Mo61  1  0.89511000  0.54403000  0.03700000  1.0
  Mo  Mo62  1  0.79508000  0.51112000  0.11810000  1.0
  Mo  Mo63  1  0.81215000  0.69319000  0.94622000  1.0
  Mo  Mo64  1  0.86471000  0.59447000  0.93061000  1.0
  Mo  Mo65  1  0.87327000  0.59513000  0.15528000  1.0
  Mo  Mo66  1  0.73416000  0.60919000  0.90899000  1.0
  Mo  Mo67  1  0.63532000  0.62010000  0.09783000  1.0
  Mo  Mo68  1  0.19570000  0.97695000  0.90609000  1.0
  Mo  Mo69  1  0.33500000  0.82773000  0.83934000  1.0
  Mo  Mo70  1  0.20759000  0.80253000  0.86732000  1.0
  Mo  Mo71  1  0.16164000  0.92007000  0.02642000  1.0
  Mo  Mo72  1  0.29985000  0.77116000  0.95956000  1.0
  Mo  Mo73  1  0.39511000  0.95597000  0.96300000  1.0
  Mo  Mo74  1  0.29508000  0.98888000  0.88190000  1.0
  Mo  Mo75  1  0.31215000  0.80681000  0.05378000  1.0
  Mo  Mo76  1  0.36471000  0.90553000  0.06939000  1.0
  Mo  Mo77  1  0.37327000  0.90487000  0.84472000  1.0
  Mo  Mo78  1  0.23416000  0.89081000  0.09101000  1.0
  Mo  Mo79  1  0.13532000  0.87990000  0.90217000  1.0
  Mo  Mo80  1  0.30430000  0.47695000  0.90609000  1.0
  Mo  Mo81  1  0.16500000  0.32773000  0.83934000  1.0
  Mo  Mo82  1  0.29241000  0.30253000  0.86732000  1.0
  Mo  Mo83  1  0.33836000  0.42007000  0.02642000  1.0
  Mo  Mo84  1  0.20015000  0.27116000  0.95956000  1.0
  Mo  Mo85  1  0.10489000  0.45597000  0.96300000  1.0
  Mo  Mo86  1  0.20492000  0.48888000  0.88190000  1.0
  Mo  Mo87  1  0.18785000  0.30681000  0.05378000  1.0
  Mo  Mo88  1  0.13529000  0.40553000  0.06939000  1.0
  Mo  Mo89  1  0.12673000  0.40487000  0.84472000  1.0
  Mo  Mo90  1  0.26584000  0.39081000  0.09101000  1.0
  Mo  Mo91  1  0.36468000  0.37990000  0.90217000  1.0
  Mo  Mo92  1  0.80430000  0.02305000  0.09391000  1.0
  Mo  Mo93  1  0.66500000  0.17227000  0.16066000  1.0
  Mo  Mo94  1  0.79241000  0.19747000  0.13268000  1.0
  Mo  Mo95  1  0.83836000  0.07993000  0.97358000  1.0
  Mo  Mo96  1  0.70015000  0.22884000  0.04044000  1.0
  Mo  Mo97  1  0.60489000  0.04403000  0.03700000  1.0
  Mo  Mo98  1  0.70492000  0.01112000  0.11810000  1.0
  Mo  Mo99  1  0.68785000  0.19319000  0.94622000  1.0
  Mo  Mo100  1  0.63529000  0.09447000  0.93061000  1.0
  Mo  Mo101  1  0.62673000  0.09513000  0.15528000  1.0
  Mo  Mo102  1  0.76584000  0.10919000  0.90899000  1.0
  Mo  Mo103  1  0.86468000  0.12010000  0.09783000  1.0
  Mo  Mo104  1  0.80430000  0.97695000  0.59391000  1.0
  Mo  Mo105  1  0.66500000  0.82773000  0.66066000  1.0
  Mo  Mo106  1  0.79241000  0.80253000  0.63268000  1.0
  Mo  Mo107  1  0.83836000  0.92007000  0.47358000  1.0
  Mo  Mo108  1  0.70015000  0.77116000  0.54044000  1.0
  Mo  Mo109  1  0.60489000  0.95597000  0.53700000  1.0
  Mo  Mo110  1  0.70492000  0.98888000  0.61810000  1.0
  Mo  Mo111  1  0.68785000  0.80681000  0.44622000  1.0
  Mo  Mo112  1  0.63529000  0.90553000  0.43061000  1.0
  Mo  Mo113  1  0.62673000  0.90487000  0.65528000  1.0
  Mo  Mo114  1  0.76584000  0.89081000  0.40899000  1.0
  Mo  Mo115  1  0.86468000  0.87990000  0.59783000  1.0
  Mo  Mo116  1  0.30430000  0.52305000  0.40609000  1.0
  Mo  Mo117  1  0.16500000  0.67227000  0.33934000  1.0
  Mo  Mo118  1  0.29241000  0.69747000  0.36732000  1.0
  Mo  Mo119  1  0.33836000  0.57993000  0.52642000  1.0
  Mo  Mo120  1  0.20015000  0.72884000  0.45956000  1.0
  Mo  Mo121  1  0.10489000  0.54403000  0.46300000  1.0
  Mo  Mo122  1  0.20492000  0.51112000  0.38190000  1.0
  Mo  Mo123  1  0.18785000  0.69319000  0.55378000  1.0
  Mo  Mo124  1  0.13529000  0.59447000  0.56939000  1.0
  Mo  Mo125  1  0.12673000  0.59513000  0.34472000  1.0
  Mo  Mo126  1  0.26584000  0.60919000  0.59101000  1.0
  Mo  Mo127  1  0.36468000  0.62010000  0.40217000  1.0
  H  H128  1  0.27460000  0.12760000  0.20880000  1.0
  H  H129  1  0.27400000  0.10700000  0.12350000  1.0
  H  H130  1  0.15950000  0.02420000  0.16090000  1.0
  H  H131  1  0.16170000  0.05040000  0.24570000  1.0
  H  H132  1  0.08590000  0.17180000  0.56030000  1.0
  H  H133  1  0.00820000  0.20660000  0.57670000  1.0
  H  H134  1  0.06620000  0.31050000  0.51340000  1.0
  H  H135  1  0.14160000  0.27350000  0.50080000  1.0
  H  H136  1  0.77460000  0.37240000  0.79120000  1.0
  H  H137  1  0.77400000  0.39300000  0.87650000  1.0
  H  H138  1  0.65950000  0.47580000  0.83910000  1.0
  H  H139  1  0.66170000  0.44960000  0.75430000  1.0
  H  H140  1  0.58590000  0.32820000  0.43970000  1.0
  H  H141  1  0.50820000  0.29340000  0.42330000  1.0
  H  H142  1  0.56620000  0.18950000  0.48660000  1.0
  H  H143  1  0.64160000  0.22650000  0.49920000  1.0
  H  H144  1  0.77460000  0.62760000  0.29120000  1.0
  H  H145  1  0.77400000  0.60700000  0.37650000  1.0
  H  H146  1  0.65950000  0.52420000  0.33910000  1.0
  H  H147  1  0.66170000  0.55040000  0.25430000  1.0
  H  H148  1  0.58590000  0.67180000  0.93970000  1.0
  H  H149  1  0.50820000  0.70660000  0.92330000  1.0
  H  H150  1  0.56620000  0.81050000  0.98660000  1.0
  H  H151  1  0.64160000  0.77350000  0.99920000  1.0
  H  H152  1  0.27460000  0.87240000  0.70880000  1.0
  H  H153  1  0.27400000  0.89300000  0.62350000  1.0
  H  H154  1  0.15950000  0.97580000  0.66090000  1.0
  H  H155  1  0.16170000  0.94960000  0.74570000  1.0
  H  H156  1  0.08590000  0.82820000  0.06030000  1.0
  H  H157  1  0.00820000  0.79340000  0.07670000  1.0
  H  H158  1  0.06620000  0.68950000  0.01340000  1.0
  H  H159  1  0.14160000  0.72650000  0.00080000  1.0
  H  H160  1  0.22540000  0.37240000  0.70880000  1.0
  H  H161  1  0.22600000  0.39300000  0.62350000  1.0
  H  H162  1  0.34050000  0.47580000  0.66090000  1.0
  H  H163  1  0.33830000  0.44960000  0.74570000  1.0
  H  H164  1  0.41410000  0.32820000  0.06030000  1.0
  H  H165  1  0.49180000  0.29340000  0.07670000  1.0
  H  H166  1  0.43380000  0.18950000  0.01340000  1.0
  H  H167  1  0.35840000  0.22650000  0.00080000  1.0
  H  H168  1  0.72540000  0.12760000  0.29120000  1.0
  H  H169  1  0.72600000  0.10700000  0.37650000  1.0
  H  H170  1  0.84050000  0.02420000  0.33910000  1.0
  H  H171  1  0.83830000  0.05040000  0.25430000  1.0
  H  H172  1  0.91410000  0.17180000  0.93970000  1.0
  H  H173  1  0.99180000  0.20660000  0.92330000  1.0
  H  H174  1  0.93380000  0.31050000  0.98660000  1.0
  H  H175  1  0.85840000  0.27350000  0.99920000  1.0
  H  H176  1  0.72540000  0.87240000  0.79120000  1.0
  H  H177  1  0.72600000  0.89300000  0.87650000  1.0
  H  H178  1  0.84050000  0.97580000  0.83910000  1.0
  H  H179  1  0.83830000  0.94960000  0.75430000  1.0
  H  H180  1  0.91410000  0.82820000  0.43970000  1.0
  H  H181  1  0.99180000  0.79340000  0.42330000  1.0
  H  H182  1  0.93380000  0.68950000  0.48660000  1.0
  H  H183  1  0.85840000  0.72650000  0.49920000  1.0
  H  H184  1  0.22540000  0.62760000  0.20880000  1.0
  H  H185  1  0.22600000  0.60700000  0.12350000  1.0
  H  H186  1  0.34050000  0.52420000  0.16090000  1.0
  H  H187  1  0.33830000  0.55040000  0.24570000  1.0
  H  H188  1  0.41410000  0.67180000  0.56030000  1.0
  H  H189  1  0.49180000  0.70660000  0.57670000  1.0
  H  H190  1  0.43380000  0.81050000  0.51340000  1.0
  H  H191  1  0.35840000  0.77350000  0.50080000  1.0
  C  C192  1  0.25170000  0.10630000  0.19880000  1.0
  C  C193  1  0.25200000  0.09400000  0.14780000  1.0
  C  C194  1  0.21890000  0.06130000  0.13130000  1.0
  C  C195  1  0.18340000  0.04490000  0.17000000  1.0
  C  C196  1  0.18560000  0.06060000  0.22110000  1.0
  C  C197  1  0.22190000  0.04160000  0.07750000  1.0
  C  C198  1  0.08170000  0.19980000  0.55020000  1.0
  C  C199  1  0.03530000  0.22100000  0.56020000  1.0
  C  C200  1  0.02830000  0.26140000  0.54690000  1.0
  C  C201  1  0.06870000  0.28240000  0.52340000  1.0
  C  C202  1  0.11330000  0.25930000  0.51530000  1.0
  C  C203  1  0.97700000  0.28300000  0.55760000  1.0
  C  C204  1  0.75170000  0.39370000  0.80120000  1.0
  C  C205  1  0.75200000  0.40600000  0.85220000  1.0
  C  C206  1  0.71890000  0.43870000  0.86870000  1.0
  C  C207  1  0.68340000  0.45510000  0.83000000  1.0
  C  C208  1  0.68560000  0.43940000  0.77890000  1.0
  C  C209  1  0.72190000  0.45840000  0.92250000  1.0
  C  C210  1  0.58170000  0.30020000  0.44980000  1.0
  C  C211  1  0.53530000  0.27900000  0.43980000  1.0
  C  C212  1  0.52830000  0.23860000  0.45310000  1.0
  C  C213  1  0.56870000  0.21760000  0.47660000  1.0
  C  C214  1  0.61330000  0.24070000  0.48470000  1.0
  C  C215  1  0.47700000  0.21700000  0.44240000  1.0
  C  C216  1  0.75170000  0.60630000  0.30120000  1.0
  C  C217  1  0.75200000  0.59400000  0.35220000  1.0
  C  C218  1  0.71890000  0.56130000  0.36870000  1.0
  C  C219  1  0.68340000  0.54490000  0.33000000  1.0
  C  C220  1  0.68560000  0.56060000  0.27890000  1.0
  C  C221  1  0.72190000  0.54160000  0.42250000  1.0
  C  C222  1  0.58170000  0.69980000  0.94980000  1.0
  C  C223  1  0.53530000  0.72100000  0.93980000  1.0
  C  C224  1  0.52830000  0.76140000  0.95310000  1.0
  C  C225  1  0.56870000  0.78240000  0.97660000  1.0
  C  C226  1  0.61330000  0.75930000  0.98470000  1.0
  C  C227  1  0.47700000  0.78300000  0.94240000  1.0
  C  C228  1  0.25170000  0.89370000  0.69880000  1.0
  C  C229  1  0.25200000  0.90600000  0.64780000  1.0
  C  C230  1  0.21890000  0.93870000  0.63130000  1.0
  C  C231  1  0.18340000  0.95510000  0.67000000  1.0
  C  C232  1  0.18560000  0.93940000  0.72110000  1.0
  C  C233  1  0.22190000  0.95840000  0.57750000  1.0
  C  C234  1  0.08170000  0.80020000  0.05020000  1.0
  C  C235  1  0.03530000  0.77900000  0.06020000  1.0
  C  C236  1  0.02830000  0.73860000  0.04690000  1.0
  C  C237  1  0.06870000  0.71760000  0.02340000  1.0
  C  C238  1  0.11330000  0.74070000  0.01530000  1.0
  C  C239  1  0.97700000  0.71700000  0.05760000  1.0
  C  C240  1  0.24830000  0.39370000  0.69880000  1.0
  C  C241  1  0.24800000  0.40600000  0.64780000  1.0
  C  C242  1  0.28110000  0.43870000  0.63130000  1.0
  C  C243  1  0.31660000  0.45510000  0.67000000  1.0
  C  C244  1  0.31440000  0.43940000  0.72110000  1.0
  C  C245  1  0.27810000  0.45840000  0.57750000  1.0
  C  C246  1  0.41830000  0.30020000  0.05020000  1.0
  C  C247  1  0.46470000  0.27900000  0.06020000  1.0
  C  C248  1  0.47170000  0.23860000  0.04690000  1.0
  C  C249  1  0.43130000  0.21760000  0.02340000  1.0
  C  C250  1  0.38670000  0.24070000  0.01530000  1.0
  C  C251  1  0.52300000  0.21700000  0.05760000  1.0
  C  C252  1  0.74830000  0.10630000  0.30120000  1.0
  C  C253  1  0.74800000  0.09400000  0.35220000  1.0
  C  C254  1  0.78110000  0.06130000  0.36870000  1.0
  C  C255  1  0.81660000  0.04490000  0.33000000  1.0
  C  C256  1  0.81440000  0.06060000  0.27890000  1.0
  C  C257  1  0.77810000  0.04160000  0.42250000  1.0
  C  C258  1  0.91830000  0.19980000  0.94980000  1.0
  C  C259  1  0.96470000  0.22100000  0.93980000  1.0
  C  C260  1  0.97170000  0.26140000  0.95310000  1.0
  C  C261  1  0.93130000  0.28240000  0.97660000  1.0
  C  C262  1  0.88670000  0.25930000  0.98470000  1.0
  C  C263  1  0.02300000  0.28300000  0.94240000  1.0
  C  C264  1  0.74830000  0.89370000  0.80120000  1.0
  C  C265  1  0.74800000  0.90600000  0.85220000  1.0
  C  C266  1  0.78110000  0.93870000  0.86870000  1.0
  C  C267  1  0.81660000  0.95510000  0.83000000  1.0
  C  C268  1  0.81440000  0.93940000  0.77890000  1.0
  C  C269  1  0.77810000  0.95840000  0.92250000  1.0
  C  C270  1  0.91830000  0.80020000  0.44980000  1.0
  C  C271  1  0.96470000  0.77900000  0.43980000  1.0
  C  C272  1  0.97170000  0.73860000  0.45310000  1.0
  C  C273  1  0.93130000  0.71760000  0.47660000  1.0
  C  C274  1  0.88670000  0.74070000  0.48470000  1.0
  C  C275  1  0.02300000  0.71700000  0.44240000  1.0
  C  C276  1  0.24830000  0.60630000  0.19880000  1.0
  C  C277  1  0.24800000  0.59400000  0.14780000  1.0
  C  C278  1  0.28110000  0.56130000  0.13130000  1.0
  C  C279  1  0.31660000  0.54490000  0.17000000  1.0
  C  C280  1  0.31440000  0.56060000  0.22110000  1.0
  C  C281  1  0.27810000  0.54160000  0.07750000  1.0
  C  C282  1  0.41830000  0.69980000  0.55020000  1.0
  C  C283  1  0.46470000  0.72100000  0.56020000  1.0
  C  C284  1  0.47170000  0.76140000  0.54690000  1.0
  C  C285  1  0.43130000  0.78240000  0.52340000  1.0
  C  C286  1  0.38670000  0.75930000  0.51530000  1.0
  C  C287  1  0.52300000  0.78300000  0.55760000  1.0
  N  N288  1  0.21990000  0.08960000  0.23740000  1.0
  N  N289  1  0.11960000  0.22030000  0.52590000  1.0
  N  N290  1  0.71990000  0.41040000  0.76260000  1.0
  N  N291  1  0.61960000  0.27970000  0.47410000  1.0
  N  N292  1  0.71990000  0.58960000  0.26260000  1.0
  N  N293  1  0.61960000  0.72030000  0.97410000  1.0
  N  N294  1  0.21990000  0.91040000  0.73740000  1.0
  N  N295  1  0.11960000  0.77970000  0.02590000  1.0
  N  N296  1  0.28010000  0.41040000  0.73740000  1.0
  N  N297  1  0.38040000  0.27970000  0.02590000  1.0
  N  N298  1  0.78010000  0.08960000  0.26260000  1.0
  N  N299  1  0.88040000  0.22030000  0.97410000  1.0
  N  N300  1  0.78010000  0.91040000  0.76260000  1.0
  N  N301  1  0.88040000  0.77970000  0.47410000  1.0
  N  N302  1  0.28010000  0.58960000  0.23740000  1.0
  N  N303  1  0.38040000  0.72030000  0.52590000  1.0
  O  O304  1  0.34840000  0.04160000  0.52680000  1.0
  O  O305  1  0.30560000  0.08560000  0.60740000  1.0
  O  O306  1  0.36690000  0.15160000  0.57780000  1.0
  O  O307  1  0.24930000  0.21150000  0.51320000  1.0
  O  O308  1  0.41840000  0.06950000  0.40160000  1.0
  O  O309  1  0.34080000  0.22490000  0.38910000  1.0
  O  O310  1  0.11630000  0.10850000  0.47040000  1.0
  O  O311  1  0.26560000  0.16370000  0.60150000  1.0
  O  O312  1  0.35560000  0.00360000  0.43340000  1.0
  O  O313  1  0.14400000  0.06530000  0.37960000  1.0
  O  O314  1  0.26310000  0.19190000  0.32200000  1.0
  O  O315  1  0.23560000  0.23550000  0.41300000  1.0
  O  O316  1  0.25620000  0.00610000  0.44930000  1.0
  O  O317  1  0.22670000  0.05600000  0.55210000  1.0
  O  O318  1  0.40130000  0.10090000  0.49890000  1.0
  O  O319  1  0.38650000  0.14630000  0.38640000  1.0
  O  O320  1  0.30850000  0.11730000  0.31570000  1.0
  O  O321  1  0.35550000  0.19440000  0.49020000  1.0
  O  O322  1  0.15790000  0.02570000  0.47940000  1.0
  O  O323  1  0.18890000  0.13820000  0.34700000  1.0
  O  O324  1  0.16400000  0.17470000  0.42740000  1.0
  O  O325  1  0.34290000  0.03930000  0.33750000  1.0
  O  O326  1  0.23970000  0.04450000  0.34800000  1.0
  O  O327  1  0.18130000  0.13720000  0.54560000  1.0
  O  O328  1  0.26920000  0.03380000  0.06340000  1.0
  O  O329  1  0.18120000  0.03340000  0.05370000  1.0
  O  O330  1  0.94350000  0.26410000  0.58250000  1.0
  O  O331  1  0.97420000  0.32010000  0.53740000  1.0
  O  O332  1  0.84840000  0.45840000  0.47320000  1.0
  O  O333  1  0.80560000  0.41440000  0.39260000  1.0
  O  O334  1  0.86690000  0.34840000  0.42220000  1.0
  O  O335  1  0.74930000  0.28850000  0.48680000  1.0
  O  O336  1  0.91840000  0.43050000  0.59840000  1.0
  O  O337  1  0.84080000  0.27510000  0.61090000  1.0
  O  O338  1  0.61630000  0.39150000  0.52960000  1.0
  O  O339  1  0.76560000  0.33630000  0.39850000  1.0
  O  O340  1  0.85560000  0.49640000  0.56660000  1.0
  O  O341  1  0.64400000  0.43470000  0.62040000  1.0
  O  O342  1  0.76310000  0.30810000  0.67800000  1.0
  O  O343  1  0.73560000  0.26450000  0.58700000  1.0
  O  O344  1  0.75620000  0.49390000  0.55070000  1.0
  O  O345  1  0.72670000  0.44400000  0.44790000  1.0
  O  O346  1  0.90130000  0.39910000  0.50110000  1.0
  O  O347  1  0.88650000  0.35370000  0.61360000  1.0
  O  O348  1  0.80850000  0.38270000  0.68430000  1.0
  O  O349  1  0.85550000  0.30560000  0.50980000  1.0
  O  O350  1  0.65790000  0.47430000  0.52060000  1.0
  O  O351  1  0.68890000  0.36180000  0.65300000  1.0
  O  O352  1  0.66400000  0.32530000  0.57260000  1.0
  O  O353  1  0.84290000  0.46070000  0.66250000  1.0
  O  O354  1  0.73970000  0.45550000  0.65200000  1.0
  O  O355  1  0.68130000  0.36280000  0.45440000  1.0
  O  O356  1  0.76920000  0.46620000  0.93660000  1.0
  O  O357  1  0.68120000  0.46660000  0.94630000  1.0
  O  O358  1  0.44350000  0.23590000  0.41750000  1.0
  O  O359  1  0.47420000  0.17990000  0.46260000  1.0
  O  O360  1  0.84840000  0.54160000  0.97320000  1.0
  O  O361  1  0.80560000  0.58560000  0.89260000  1.0
  O  O362  1  0.86690000  0.65160000  0.92220000  1.0
  O  O363  1  0.74930000  0.71150000  0.98680000  1.0
  O  O364  1  0.91840000  0.56950000  0.09840000  1.0
  O  O365  1  0.84080000  0.72490000  0.11090000  1.0
  O  O366  1  0.61630000  0.60850000  0.02960000  1.0
  O  O367  1  0.76560000  0.66370000  0.89850000  1.0
  O  O368  1  0.85560000  0.50360000  0.06660000  1.0
  O  O369  1  0.64400000  0.56530000  0.12040000  1.0
  O  O370  1  0.76310000  0.69190000  0.17800000  1.0
  O  O371  1  0.73560000  0.73550000  0.08700000  1.0
  O  O372  1  0.75620000  0.50610000  0.05070000  1.0
  O  O373  1  0.72670000  0.55600000  0.94790000  1.0
  O  O374  1  0.90130000  0.60090000  0.00110000  1.0
  O  O375  1  0.88650000  0.64630000  0.11360000  1.0
  O  O376  1  0.80850000  0.61730000  0.18430000  1.0
  O  O377  1  0.85550000  0.69440000  0.00980000  1.0
  O  O378  1  0.65790000  0.52570000  0.02060000  1.0
  O  O379  1  0.68890000  0.63820000  0.15300000  1.0
  O  O380  1  0.66400000  0.67470000  0.07260000  1.0
  O  O381  1  0.84290000  0.53930000  0.16250000  1.0
  O  O382  1  0.73970000  0.54450000  0.15200000  1.0
  O  O383  1  0.68130000  0.63720000  0.95440000  1.0
  O  O384  1  0.76920000  0.53380000  0.43660000  1.0
  O  O385  1  0.68120000  0.53340000  0.44630000  1.0
  O  O386  1  0.44350000  0.76410000  0.91750000  1.0
  O  O387  1  0.47420000  0.82010000  0.96260000  1.0
  O  O388  1  0.34840000  0.95840000  0.02680000  1.0
  O  O389  1  0.30560000  0.91440000  0.10740000  1.0
  O  O390  1  0.36690000  0.84840000  0.07780000  1.0
  O  O391  1  0.24930000  0.78850000  0.01320000  1.0
  O  O392  1  0.41840000  0.93050000  0.90160000  1.0
  O  O393  1  0.34080000  0.77510000  0.88910000  1.0
  O  O394  1  0.11630000  0.89150000  0.97040000  1.0
  O  O395  1  0.26560000  0.83630000  0.10150000  1.0
  O  O396  1  0.35560000  0.99640000  0.93340000  1.0
  O  O397  1  0.14400000  0.93470000  0.87960000  1.0
  O  O398  1  0.26310000  0.80810000  0.82200000  1.0
  O  O399  1  0.23560000  0.76450000  0.91300000  1.0
  O  O400  1  0.25620000  0.99390000  0.94930000  1.0
  O  O401  1  0.22670000  0.94400000  0.05210000  1.0
  O  O402  1  0.40130000  0.89910000  0.99890000  1.0
  O  O403  1  0.38650000  0.85370000  0.88640000  1.0
  O  O404  1  0.30850000  0.88270000  0.81570000  1.0
  O  O405  1  0.35550000  0.80560000  0.99020000  1.0
  O  O406  1  0.15790000  0.97430000  0.97940000  1.0
  O  O407  1  0.18890000  0.86180000  0.84700000  1.0
  O  O408  1  0.16400000  0.82530000  0.92740000  1.0
  O  O409  1  0.34290000  0.96070000  0.83750000  1.0
  O  O410  1  0.23970000  0.95550000  0.84800000  1.0
  O  O411  1  0.18130000  0.86280000  0.04560000  1.0
  O  O412  1  0.26920000  0.96620000  0.56340000  1.0
  O  O413  1  0.18120000  0.96660000  0.55370000  1.0
  O  O414  1  0.94350000  0.73590000  0.08250000  1.0
  O  O415  1  0.97420000  0.67990000  0.03740000  1.0
  O  O416  1  0.15160000  0.45840000  0.02680000  1.0
  O  O417  1  0.19440000  0.41440000  0.10740000  1.0
  O  O418  1  0.13310000  0.34840000  0.07780000  1.0
  O  O419  1  0.25070000  0.28850000  0.01320000  1.0
  O  O420  1  0.08160000  0.43050000  0.90160000  1.0
  O  O421  1  0.15920000  0.27510000  0.88910000  1.0
  O  O422  1  0.38370000  0.39150000  0.97040000  1.0
  O  O423  1  0.23440000  0.33630000  0.10150000  1.0
  O  O424  1  0.14440000  0.49640000  0.93340000  1.0
  O  O425  1  0.35600000  0.43470000  0.87960000  1.0
  O  O426  1  0.23690000  0.30810000  0.82200000  1.0
  O  O427  1  0.26440000  0.26450000  0.91300000  1.0
  O  O428  1  0.24380000  0.49390000  0.94930000  1.0
  O  O429  1  0.27330000  0.44400000  0.05210000  1.0
  O  O430  1  0.09870000  0.39910000  0.99890000  1.0
  O  O431  1  0.11350000  0.35370000  0.88640000  1.0
  O  O432  1  0.19150000  0.38270000  0.81570000  1.0
  O  O433  1  0.14450000  0.30560000  0.99020000  1.0
  O  O434  1  0.34210000  0.47430000  0.97940000  1.0
  O  O435  1  0.31110000  0.36180000  0.84700000  1.0
  O  O436  1  0.33600000  0.32530000  0.92740000  1.0
  O  O437  1  0.15710000  0.46070000  0.83750000  1.0
  O  O438  1  0.26030000  0.45550000  0.84800000  1.0
  O  O439  1  0.31870000  0.36280000  0.04560000  1.0
  O  O440  1  0.23080000  0.46620000  0.56340000  1.0
  O  O441  1  0.31880000  0.46660000  0.55370000  1.0
  O  O442  1  0.55650000  0.23590000  0.08250000  1.0
  O  O443  1  0.52580000  0.17990000  0.03740000  1.0
  O  O444  1  0.65160000  0.04160000  0.97320000  1.0
  O  O445  1  0.69440000  0.08560000  0.89260000  1.0
  O  O446  1  0.63310000  0.15160000  0.92220000  1.0
  O  O447  1  0.75070000  0.21150000  0.98680000  1.0
  O  O448  1  0.58160000  0.06950000  0.09840000  1.0
  O  O449  1  0.65920000  0.22490000  0.11090000  1.0
  O  O450  1  0.88370000  0.10850000  0.02960000  1.0
  O  O451  1  0.73440000  0.16370000  0.89850000  1.0
  O  O452  1  0.64440000  0.00360000  0.06660000  1.0
  O  O453  1  0.85600000  0.06530000  0.12040000  1.0
  O  O454  1  0.73690000  0.19190000  0.17800000  1.0
  O  O455  1  0.76440000  0.23550000  0.08700000  1.0
  O  O456  1  0.74380000  0.00610000  0.05070000  1.0
  O  O457  1  0.77330000  0.05600000  0.94790000  1.0
  O  O458  1  0.59870000  0.10090000  0.00110000  1.0
  O  O459  1  0.61350000  0.14630000  0.11360000  1.0
  O  O460  1  0.69150000  0.11730000  0.18430000  1.0
  O  O461  1  0.64450000  0.19440000  0.00980000  1.0
  O  O462  1  0.84210000  0.02570000  0.02060000  1.0
  O  O463  1  0.81110000  0.13820000  0.15300000  1.0
  O  O464  1  0.83600000  0.17470000  0.07260000  1.0
  O  O465  1  0.65710000  0.03930000  0.16250000  1.0
  O  O466  1  0.76030000  0.04450000  0.15200000  1.0
  O  O467  1  0.81870000  0.13720000  0.95440000  1.0
  O  O468  1  0.73080000  0.03380000  0.43660000  1.0
  O  O469  1  0.81880000  0.03340000  0.44630000  1.0
  O  O470  1  0.05650000  0.26410000  0.91750000  1.0
  O  O471  1  0.02580000  0.32010000  0.96260000  1.0
  O  O472  1  0.65160000  0.95840000  0.47320000  1.0
  O  O473  1  0.69440000  0.91440000  0.39260000  1.0
  O  O474  1  0.63310000  0.84840000  0.42220000  1.0
  O  O475  1  0.75070000  0.78850000  0.48680000  1.0
  O  O476  1  0.58160000  0.93050000  0.59840000  1.0
  O  O477  1  0.65920000  0.77510000  0.61090000  1.0
  O  O478  1  0.88370000  0.89150000  0.52960000  1.0
  O  O479  1  0.73440000  0.83630000  0.39850000  1.0
  O  O480  1  0.64440000  0.99640000  0.56660000  1.0
  O  O481  1  0.85600000  0.93470000  0.62040000  1.0
  O  O482  1  0.73690000  0.80810000  0.67800000  1.0
  O  O483  1  0.76440000  0.76450000  0.58700000  1.0
  O  O484  1  0.74380000  0.99390000  0.55070000  1.0
  O  O485  1  0.77330000  0.94400000  0.44790000  1.0
  O  O486  1  0.59870000  0.89910000  0.50110000  1.0
  O  O487  1  0.61350000  0.85370000  0.61360000  1.0
  O  O488  1  0.69150000  0.88270000  0.68430000  1.0
  O  O489  1  0.64450000  0.80560000  0.50980000  1.0
  O  O490  1  0.84210000  0.97430000  0.52060000  1.0
  O  O491  1  0.81110000  0.86180000  0.65300000  1.0
  O  O492  1  0.83600000  0.82530000  0.57260000  1.0
  O  O493  1  0.65710000  0.96070000  0.66250000  1.0
  O  O494  1  0.76030000  0.95550000  0.65200000  1.0
  O  O495  1  0.81870000  0.86280000  0.45440000  1.0
  O  O496  1  0.73080000  0.96620000  0.93660000  1.0
  O  O497  1  0.81880000  0.96660000  0.94630000  1.0
  O  O498  1  0.05650000  0.73590000  0.41750000  1.0
  O  O499  1  0.02580000  0.67990000  0.46260000  1.0
  O  O500  1  0.15160000  0.54160000  0.52680000  1.0
  O  O501  1  0.19440000  0.58560000  0.60740000  1.0
  O  O502  1  0.13310000  0.65160000  0.57780000  1.0
  O  O503  1  0.25070000  0.71150000  0.51320000  1.0
  O  O504  1  0.08160000  0.56950000  0.40160000  1.0
  O  O505  1  0.15920000  0.72490000  0.38910000  1.0
  O  O506  1  0.38370000  0.60850000  0.47040000  1.0
  O  O507  1  0.23440000  0.66370000  0.60150000  1.0
  O  O508  1  0.14440000  0.50360000  0.43340000  1.0
  O  O509  1  0.35600000  0.56530000  0.37960000  1.0
  O  O510  1  0.23690000  0.69190000  0.32200000  1.0
  O  O511  1  0.26440000  0.73550000  0.41300000  1.0
  O  O512  1  0.24380000  0.50610000  0.44930000  1.0
  O  O513  1  0.27330000  0.55600000  0.55210000  1.0
  O  O514  1  0.09870000  0.60090000  0.49890000  1.0
  O  O515  1  0.11350000  0.64630000  0.38640000  1.0
  O  O516  1  0.19150000  0.61730000  0.31570000  1.0
  O  O517  1  0.14450000  0.69440000  0.49020000  1.0
  O  O518  1  0.34210000  0.52570000  0.47940000  1.0
  O  O519  1  0.31110000  0.63820000  0.34700000  1.0
  O  O520  1  0.33600000  0.67470000  0.42740000  1.0
  O  O521  1  0.15710000  0.53930000  0.33750000  1.0
  O  O522  1  0.26030000  0.54450000  0.34800000  1.0
  O  O523  1  0.31870000  0.63720000  0.54560000  1.0
  O  O524  1  0.23080000  0.53380000  0.06340000  1.0
  O  O525  1  0.31880000  0.53340000  0.05370000  1.0
  O  O526  1  0.55650000  0.76410000  0.58250000  1.0
  O  O527  1  0.52580000  0.82010000  0.53740000  1.0
