# generated using pymatgen
data_Ag3H12(C2N5)2
_symmetry_space_group_name_H-M   'P 1'
_cell_length_a   29.58620000
_cell_length_b   29.58620000
_cell_length_c   3.45630000
_cell_angle_alpha   90.00000000
_cell_angle_beta   90.00000000
_cell_angle_gamma   90.00000000
_symmetry_Int_Tables_number   1
_chemical_formula_structural   Ag3H12(C2N5)2
_chemical_formula_sum   'Ag24 H96 C32 N80'
_cell_volume   3025.44880737
_cell_formula_units_Z   8
loop_
 _symmetry_equiv_pos_site_id
 _symmetry_equiv_pos_as_xyz
  1  'x, y, z'
loop_
 _atom_site_type_symbol
 _atom_site_label
 _atom_site_symmetry_multiplicity
 _atom_site_fract_x
 _atom_site_fract_y
 _atom_site_fract_z
 _atom_site_occupancy
  Ag  Ag0  1  0.06044000  0.68956000  0.12500000  1.0
  Ag  Ag1  1  0.43956000  0.31044000  0.62500000  1.0
  Ag  Ag2  1  0.56044000  0.81044000  0.37500000  1.0
  Ag  Ag3  1  0.93956000  0.18956000  0.87500000  1.0
  Ag  Ag4  1  0.43956000  0.68956000  0.37500000  1.0
  Ag  Ag5  1  0.06044000  0.31044000  0.87500000  1.0
  Ag  Ag6  1  0.93956000  0.81044000  0.12500000  1.0
  Ag  Ag7  1  0.56044000  0.18956000  0.62500000  1.0
  Ag  Ag8  1  0.93956000  0.31044000  0.87500000  1.0
  Ag  Ag9  1  0.56044000  0.68956000  0.37500000  1.0
  Ag  Ag10  1  0.43956000  0.18956000  0.62500000  1.0
  Ag  Ag11  1  0.06044000  0.81044000  0.12500000  1.0
  Ag  Ag12  1  0.56044000  0.31044000  0.62500000  1.0
  Ag  Ag13  1  0.93956000  0.68956000  0.12500000  1.0
  Ag  Ag14  1  0.06044000  0.18956000  0.87500000  1.0
  Ag  Ag15  1  0.43956000  0.81044000  0.37500000  1.0
  Ag  Ag16  1  0.25000000  0.75000000  0.75000000  1.0
  Ag  Ag17  1  0.25000000  0.25000000  0.25000000  1.0
  Ag  Ag18  1  0.50000000  0.00000000  0.00000000  1.0
  Ag  Ag19  1  0.00000000  0.50000000  0.50000000  1.0
  Ag  Ag20  1  0.00000000  0.00000000  0.50000000  1.0
  Ag  Ag21  1  0.50000000  0.50000000  0.00000000  1.0
  Ag  Ag22  1  0.75000000  0.25000000  0.25000000  1.0
  Ag  Ag23  1  0.75000000  0.75000000  0.75000000  1.0
  H  H24  1  0.15030000  0.64850000  0.42030000  1.0
  H  H25  1  0.19560000  0.66190000  0.56820000  1.0
  H  H26  1  0.16620000  0.68510000  0.48170000  1.0
  H  H27  1  0.65030000  0.14850000  0.92030000  1.0
  H  H28  1  0.69560000  0.16190000  0.06820000  1.0
  H  H29  1  0.66620000  0.18510000  0.98170000  1.0
  H  H30  1  0.34970000  0.35150000  0.92030000  1.0
  H  H31  1  0.30440000  0.33810000  0.06820000  1.0
  H  H32  1  0.33380000  0.31490000  0.98170000  1.0
  H  H33  1  0.84970000  0.85150000  0.42030000  1.0
  H  H34  1  0.80440000  0.83810000  0.56820000  1.0
  H  H35  1  0.83380000  0.81490000  0.48170000  1.0
  H  H36  1  0.60150000  0.90030000  0.67030000  1.0
  H  H37  1  0.58810000  0.94560000  0.81820000  1.0
  H  H38  1  0.56490000  0.91620000  0.73170000  1.0
  H  H39  1  0.10150000  0.40030000  0.17030000  1.0
  H  H40  1  0.08810000  0.44560000  0.31820000  1.0
  H  H41  1  0.06490000  0.41620000  0.23170000  1.0
  H  H42  1  0.89850000  0.09970000  0.17030000  1.0
  H  H43  1  0.91190000  0.05440000  0.31820000  1.0
  H  H44  1  0.93510000  0.08380000  0.23170000  1.0
  H  H45  1  0.39850000  0.59970000  0.67030000  1.0
  H  H46  1  0.41190000  0.55440000  0.81820000  1.0
  H  H47  1  0.43510000  0.58380000  0.73170000  1.0
  H  H48  1  0.34970000  0.64850000  0.07970000  1.0
  H  H49  1  0.30440000  0.66190000  0.93180000  1.0
  H  H50  1  0.33380000  0.68510000  0.01830000  1.0
  H  H51  1  0.84970000  0.14850000  0.57970000  1.0
  H  H52  1  0.80440000  0.16190000  0.43180000  1.0
  H  H53  1  0.83380000  0.18510000  0.51830000  1.0
  H  H54  1  0.15030000  0.35150000  0.57970000  1.0
  H  H55  1  0.19560000  0.33810000  0.43180000  1.0
  H  H56  1  0.16620000  0.31490000  0.51830000  1.0
  H  H57  1  0.65030000  0.85150000  0.07970000  1.0
  H  H58  1  0.69560000  0.83810000  0.93180000  1.0
  H  H59  1  0.66620000  0.81490000  0.01830000  1.0
  H  H60  1  0.89850000  0.90030000  0.82970000  1.0
  H  H61  1  0.91190000  0.94560000  0.68180000  1.0
  H  H62  1  0.93510000  0.91620000  0.76830000  1.0
  H  H63  1  0.39850000  0.40030000  0.32970000  1.0
  H  H64  1  0.41190000  0.44560000  0.18180000  1.0
  H  H65  1  0.43510000  0.41620000  0.26830000  1.0
  H  H66  1  0.60150000  0.09970000  0.32970000  1.0
  H  H67  1  0.58810000  0.05440000  0.18180000  1.0
  H  H68  1  0.56490000  0.08380000  0.26830000  1.0
  H  H69  1  0.10150000  0.59970000  0.82970000  1.0
  H  H70  1  0.08810000  0.55440000  0.68180000  1.0
  H  H71  1  0.06490000  0.58380000  0.76830000  1.0
  H  H72  1  0.84970000  0.35150000  0.57970000  1.0
  H  H73  1  0.80440000  0.33810000  0.43180000  1.0
  H  H74  1  0.83380000  0.31490000  0.51830000  1.0
  H  H75  1  0.34970000  0.85150000  0.07970000  1.0
  H  H76  1  0.30440000  0.83810000  0.93180000  1.0
  H  H77  1  0.33380000  0.81490000  0.01830000  1.0
  H  H78  1  0.65030000  0.64850000  0.07970000  1.0
  H  H79  1  0.69560000  0.66190000  0.93180000  1.0
  H  H80  1  0.66620000  0.68510000  0.01830000  1.0
  H  H81  1  0.15030000  0.14850000  0.57970000  1.0
  H  H82  1  0.19560000  0.16190000  0.43180000  1.0
  H  H83  1  0.16620000  0.18510000  0.51830000  1.0
  H  H84  1  0.39850000  0.09970000  0.32970000  1.0
  H  H85  1  0.41190000  0.05440000  0.18180000  1.0
  H  H86  1  0.43510000  0.08380000  0.26830000  1.0
  H  H87  1  0.89850000  0.59970000  0.82970000  1.0
  H  H88  1  0.91190000  0.55440000  0.68180000  1.0
  H  H89  1  0.93510000  0.58380000  0.76830000  1.0
  H  H90  1  0.10150000  0.90030000  0.82970000  1.0
  H  H91  1  0.08810000  0.94560000  0.68180000  1.0
  H  H92  1  0.06490000  0.91620000  0.76830000  1.0
  H  H93  1  0.60150000  0.40030000  0.32970000  1.0
  H  H94  1  0.58810000  0.44560000  0.18180000  1.0
  H  H95  1  0.56490000  0.41620000  0.26830000  1.0
  H  H96  1  0.65030000  0.35150000  0.92030000  1.0
  H  H97  1  0.69560000  0.33810000  0.06820000  1.0
  H  H98  1  0.66620000  0.31490000  0.98170000  1.0
  H  H99  1  0.15030000  0.85150000  0.42030000  1.0
  H  H100  1  0.19560000  0.83810000  0.56820000  1.0
  H  H101  1  0.16620000  0.81490000  0.48170000  1.0
  H  H102  1  0.84970000  0.64850000  0.42030000  1.0
  H  H103  1  0.80440000  0.66190000  0.56820000  1.0
  H  H104  1  0.83380000  0.68510000  0.48170000  1.0
  H  H105  1  0.34970000  0.14850000  0.92030000  1.0
  H  H106  1  0.30440000  0.16190000  0.06820000  1.0
  H  H107  1  0.33380000  0.18510000  0.98170000  1.0
  H  H108  1  0.10150000  0.09970000  0.17030000  1.0
  H  H109  1  0.08810000  0.05440000  0.31820000  1.0
  H  H110  1  0.06490000  0.08380000  0.23170000  1.0
  H  H111  1  0.60150000  0.59970000  0.67030000  1.0
  H  H112  1  0.58810000  0.55440000  0.81820000  1.0
  H  H113  1  0.56490000  0.58380000  0.73170000  1.0
  H  H114  1  0.39850000  0.90030000  0.67030000  1.0
  H  H115  1  0.41190000  0.94560000  0.81820000  1.0
  H  H116  1  0.43510000  0.91620000  0.73170000  1.0
  H  H117  1  0.89850000  0.40030000  0.17030000  1.0
  H  H118  1  0.91190000  0.44560000  0.31820000  1.0
  H  H119  1  0.93510000  0.41620000  0.23170000  1.0
  C  C120  1  0.15710000  0.71490000  0.45300000  1.0
  C  C121  1  0.65710000  0.21490000  0.95300000  1.0
  C  C122  1  0.34290000  0.28510000  0.95300000  1.0
  C  C123  1  0.84290000  0.78510000  0.45300000  1.0
  C  C124  1  0.53510000  0.90710000  0.70300000  1.0
  C  C125  1  0.03510000  0.40710000  0.20300000  1.0
  C  C126  1  0.96490000  0.09290000  0.20300000  1.0
  C  C127  1  0.46490000  0.59290000  0.70300000  1.0
  C  C128  1  0.34290000  0.71490000  0.04700000  1.0
  C  C129  1  0.84290000  0.21490000  0.54700000  1.0
  C  C130  1  0.15710000  0.28510000  0.54700000  1.0
  C  C131  1  0.65710000  0.78510000  0.04700000  1.0
  C  C132  1  0.96490000  0.90710000  0.79700000  1.0
  C  C133  1  0.46490000  0.40710000  0.29700000  1.0
  C  C134  1  0.53510000  0.09290000  0.29700000  1.0
  C  C135  1  0.03510000  0.59290000  0.79700000  1.0
  C  C136  1  0.84290000  0.28510000  0.54700000  1.0
  C  C137  1  0.34290000  0.78510000  0.04700000  1.0
  C  C138  1  0.65710000  0.71490000  0.04700000  1.0
  C  C139  1  0.15710000  0.21490000  0.54700000  1.0
  C  C140  1  0.46490000  0.09290000  0.29700000  1.0
  C  C141  1  0.96490000  0.59290000  0.79700000  1.0
  C  C142  1  0.03510000  0.90710000  0.79700000  1.0
  C  C143  1  0.53510000  0.40710000  0.29700000  1.0
  C  C144  1  0.65710000  0.28510000  0.95300000  1.0
  C  C145  1  0.15710000  0.78510000  0.45300000  1.0
  C  C146  1  0.84290000  0.71490000  0.45300000  1.0
  C  C147  1  0.34290000  0.21490000  0.95300000  1.0
  C  C148  1  0.03510000  0.09290000  0.20300000  1.0
  C  C149  1  0.53510000  0.59290000  0.70300000  1.0
  C  C150  1  0.46490000  0.90710000  0.70300000  1.0
  C  C151  1  0.96490000  0.40710000  0.20300000  1.0
  N  N152  1  0.11699000  0.72652000  0.32620000  1.0
  N  N153  1  0.16920000  0.66920000  0.48500000  1.0
  N  N154  1  0.61699000  0.22652000  0.82620000  1.0
  N  N155  1  0.66920000  0.16920000  0.98500000  1.0
  N  N156  1  0.38301000  0.27348000  0.82620000  1.0
  N  N157  1  0.33080000  0.33080000  0.98500000  1.0
  N  N158  1  0.88301000  0.77348000  0.32620000  1.0
  N  N159  1  0.83080000  0.83080000  0.48500000  1.0
  N  N160  1  0.52348000  0.86699000  0.57620000  1.0
  N  N161  1  0.58080000  0.91920000  0.73500000  1.0
  N  N162  1  0.02348000  0.36699000  0.07620000  1.0
  N  N163  1  0.08080000  0.41920000  0.23500000  1.0
  N  N164  1  0.97652000  0.13301000  0.07620000  1.0
  N  N165  1  0.91920000  0.08080000  0.23500000  1.0
  N  N166  1  0.47652000  0.63301000  0.57620000  1.0
  N  N167  1  0.41920000  0.58080000  0.73500000  1.0
  N  N168  1  0.38301000  0.72652000  0.17380000  1.0
  N  N169  1  0.33080000  0.66920000  0.01500000  1.0
  N  N170  1  0.88301000  0.22652000  0.67380000  1.0
  N  N171  1  0.83080000  0.16920000  0.51500000  1.0
  N  N172  1  0.11699000  0.27348000  0.67380000  1.0
  N  N173  1  0.16920000  0.33080000  0.51500000  1.0
  N  N174  1  0.61699000  0.77348000  0.17380000  1.0
  N  N175  1  0.66920000  0.83080000  0.01500000  1.0
  N  N176  1  0.97652000  0.86699000  0.92380000  1.0
  N  N177  1  0.91920000  0.91920000  0.76500000  1.0
  N  N178  1  0.47652000  0.36699000  0.42380000  1.0
  N  N179  1  0.41920000  0.41920000  0.26500000  1.0
  N  N180  1  0.52348000  0.13301000  0.42380000  1.0
  N  N181  1  0.58080000  0.08080000  0.26500000  1.0
  N  N182  1  0.02348000  0.63301000  0.92380000  1.0
  N  N183  1  0.08080000  0.58080000  0.76500000  1.0
  N  N184  1  0.88301000  0.27348000  0.67380000  1.0
  N  N185  1  0.83080000  0.33080000  0.51500000  1.0
  N  N186  1  0.38301000  0.77348000  0.17380000  1.0
  N  N187  1  0.33080000  0.83080000  0.01500000  1.0
  N  N188  1  0.61699000  0.72652000  0.17380000  1.0
  N  N189  1  0.66920000  0.66920000  0.01500000  1.0
  N  N190  1  0.11699000  0.22652000  0.67380000  1.0
  N  N191  1  0.16920000  0.16920000  0.51500000  1.0
  N  N192  1  0.47652000  0.13301000  0.42380000  1.0
  N  N193  1  0.41920000  0.08080000  0.26500000  1.0
  N  N194  1  0.97652000  0.63301000  0.92380000  1.0
  N  N195  1  0.91920000  0.58080000  0.76500000  1.0
  N  N196  1  0.02348000  0.86699000  0.92380000  1.0
  N  N197  1  0.08080000  0.91920000  0.76500000  1.0
  N  N198  1  0.52348000  0.36699000  0.42380000  1.0
  N  N199  1  0.58080000  0.41920000  0.26500000  1.0
  N  N200  1  0.61699000  0.27348000  0.82620000  1.0
  N  N201  1  0.66920000  0.33080000  0.98500000  1.0
  N  N202  1  0.11699000  0.77348000  0.32620000  1.0
  N  N203  1  0.16920000  0.83080000  0.48500000  1.0
  N  N204  1  0.88301000  0.72652000  0.32620000  1.0
  N  N205  1  0.83080000  0.66920000  0.48500000  1.0
  N  N206  1  0.38301000  0.22652000  0.82620000  1.0
  N  N207  1  0.33080000  0.16920000  0.98500000  1.0
  N  N208  1  0.02348000  0.13301000  0.07620000  1.0
  N  N209  1  0.08080000  0.08080000  0.23500000  1.0
  N  N210  1  0.52348000  0.63301000  0.57620000  1.0
  N  N211  1  0.58080000  0.58080000  0.73500000  1.0
  N  N212  1  0.47652000  0.86699000  0.57620000  1.0
  N  N213  1  0.41920000  0.91920000  0.73500000  1.0
  N  N214  1  0.97652000  0.36699000  0.07620000  1.0
  N  N215  1  0.91920000  0.41920000  0.23500000  1.0
  N  N216  1  0.18360000  0.75000000  0.53700000  1.0
  N  N217  1  0.31640000  0.25000000  0.03700000  1.0
  N  N218  1  0.50000000  0.93360000  0.78700000  1.0
  N  N219  1  0.00000000  0.43360000  0.28700000  1.0
  N  N220  1  0.00000000  0.06640000  0.28700000  1.0
  N  N221  1  0.50000000  0.56640000  0.78700000  1.0
  N  N222  1  0.31640000  0.75000000  0.96300000  1.0
  N  N223  1  0.18360000  0.25000000  0.46300000  1.0
  N  N224  1  0.00000000  0.93360000  0.71300000  1.0
  N  N225  1  0.50000000  0.43360000  0.21300000  1.0
  N  N226  1  0.50000000  0.06640000  0.21300000  1.0
  N  N227  1  0.00000000  0.56640000  0.71300000  1.0
  N  N228  1  0.81640000  0.25000000  0.46300000  1.0
  N  N229  1  0.68360000  0.75000000  0.96300000  1.0
  N  N230  1  0.68360000  0.25000000  0.03700000  1.0
  N  N231  1  0.81640000  0.75000000  0.53700000  1.0
