# generated using pymatgen
data_NiMo4H20C15N15O8
_symmetry_space_group_name_H-M   'P 1'
_cell_length_a   10.66100000
_cell_length_b   11.99800000
_cell_length_c   13.87800000
_cell_angle_alpha   72.77400000
_cell_angle_beta   79.85900000
_cell_angle_gamma   81.10600000
_symmetry_Int_Tables_number   1
_chemical_formula_structural   NiMo4H20C15N15O8
_chemical_formula_sum   'Ni2 Mo8 H40 C30 N30 O16'
_cell_volume   1659.08955527
_cell_formula_units_Z   2
loop_
 _symmetry_equiv_pos_site_id
 _symmetry_equiv_pos_as_xyz
  1  'x, y, z'
loop_
 _atom_site_type_symbol
 _atom_site_label
 _atom_site_symmetry_multiplicity
 _atom_site_fract_x
 _atom_site_fract_y
 _atom_site_fract_z
 _atom_site_occupancy
  Ni  Ni0  1  0.00000000  0.00000000  0.00000000  1.0
  Ni  Ni1  1  0.00000000  0.50000000  0.50000000  1.0
  Mo  Mo2  1  0.87685000  0.21404000  0.54577000  1.0
  Mo  Mo3  1  0.14817000  0.01247000  0.53183000  1.0
  Mo  Mo4  1  0.90915000  0.00061000  0.74627000  1.0
  Mo  Mo5  1  0.09085000  0.99939000  0.25373000  1.0
  Mo  Mo6  1  0.12315000  0.78596000  0.45423000  1.0
  Mo  Mo7  1  0.87851000  0.22137000  0.26338000  1.0
  Mo  Mo8  1  0.12149000  0.77863000  0.73662000  1.0
  Mo  Mo9  1  0.85183000  0.98753000  0.46817000  1.0
  H  H10  1  0.61230000  0.19260000  0.18830000  1.0
  H  H11  1  0.25730000  0.60170000  0.34840000  1.0
  H  H12  1  0.48710000  0.94580000  0.28660000  1.0
  H  H13  1  0.74270000  0.39830000  0.65160000  1.0
  H  H14  1  0.30370000  0.99020000  0.03900000  1.0
  H  H15  1  0.51890000  0.75570000  0.39060000  1.0
  H  H16  1  0.71060000  0.82520000  0.68450000  1.0
  H  H17  1  0.05940000  0.42220000  0.73430000  1.0
  H  H18  1  0.07810000  0.51810000  0.90350000  1.0
  H  H19  1  0.37260000  0.15390000  0.21590000  1.0
  H  H20  1  0.64060000  0.63910000  0.85720000  1.0
  H  H21  1  0.38630000  0.74940000  0.55280000  1.0
  H  H22  1  0.12630000  0.44140000  0.00590000  1.0
  H  H23  1  0.91580000  0.65330000  0.65920000  1.0
  H  H24  1  0.22490000  0.31370000  0.16570000  1.0
  H  H25  1  0.38770000  0.80740000  0.81170000  1.0
  H  H26  1  0.69630000  0.00980000  0.96100000  1.0
  H  H27  1  0.82600000  0.24810000  0.88280000  1.0
  H  H28  1  0.82280000  0.95240000  0.21430000  1.0
  H  H29  1  0.17720000  0.04760000  0.78570000  1.0
  H  H30  1  0.73160000  0.68520000  0.48340000  1.0
  H  H31  1  0.61200000  0.93570000  0.33540000  1.0
  H  H32  1  0.92190000  0.48190000  0.09650000  1.0
  H  H33  1  0.26840000  0.31480000  0.51660000  1.0
  H  H34  1  0.88050000  0.77710000  0.97950000  1.0
  H  H35  1  0.08420000  0.34670000  0.34080000  1.0
  H  H36  1  0.46090000  0.25060000  0.72230000  1.0
  H  H37  1  0.11950000  0.22290000  0.02050000  1.0
  H  H38  1  0.53910000  0.74940000  0.27770000  1.0
  H  H39  1  0.28940000  0.17480000  0.31550000  1.0
  H  H40  1  0.77510000  0.68630000  0.83430000  1.0
  H  H41  1  0.94060000  0.57780000  0.26570000  1.0
  H  H42  1  0.38800000  0.06430000  0.66460000  1.0
  H  H43  1  0.17400000  0.75190000  0.11720000  1.0
  H  H44  1  0.35940000  0.36090000  0.14280000  1.0
  H  H45  1  0.87370000  0.55860000  0.99410000  1.0
  H  H46  1  0.62740000  0.84610000  0.78410000  1.0
  H  H47  1  0.48110000  0.24430000  0.60940000  1.0
  H  H48  1  0.51290000  0.05420000  0.71340000  1.0
  H  H49  1  0.61370000  0.25060000  0.44720000  1.0
  C  C50  1  0.35180000  0.20760000  0.25810000  1.0
  C  C51  1  0.76990000  0.96030000  0.16550000  1.0
  C  C52  1  0.14350000  0.40030000  0.32840000  1.0
  C  C53  1  0.57470000  0.90900000  0.28830000  1.0
  C  C54  1  0.70530000  0.67470000  0.80320000  1.0
  C  C55  1  0.11090000  0.73300000  0.08810000  1.0
  C  C56  1  0.29860000  0.00850000  0.96980000  1.0
  C  C57  1  0.76230000  0.67040000  0.42090000  1.0
  C  C58  1  0.23800000  0.53760000  0.33140000  1.0
  C  C59  1  0.41270000  0.79100000  0.74920000  1.0
  C  C60  1  0.76200000  0.46240000  0.66860000  1.0
  C  C61  1  0.42530000  0.09100000  0.71170000  1.0
  C  C62  1  0.05190000  0.46650000  0.97020000  1.0
  C  C63  1  0.58550000  0.24100000  0.39070000  1.0
  C  C64  1  0.23010000  0.03970000  0.83450000  1.0
  C  C65  1  0.58730000  0.20900000  0.25080000  1.0
  C  C66  1  0.64820000  0.79240000  0.74190000  1.0
  C  C67  1  0.04870000  0.25190000  0.98630000  1.0
  C  C68  1  0.70140000  0.99150000  0.03020000  1.0
  C  C69  1  0.88910000  0.26700000  0.91190000  1.0
  C  C70  1  0.87320000  0.61420000  0.30170000  1.0
  C  C71  1  0.41450000  0.75900000  0.60930000  1.0
  C  C72  1  0.57460000  0.77540000  0.32610000  1.0
  C  C73  1  0.94810000  0.53350000  0.02980000  1.0
  C  C74  1  0.29470000  0.32530000  0.19680000  1.0
  C  C75  1  0.42540000  0.22460000  0.67390000  1.0
  C  C76  1  0.95130000  0.74810000  0.01370000  1.0
  C  C77  1  0.12680000  0.38580000  0.69830000  1.0
  C  C78  1  0.23770000  0.32960000  0.57910000  1.0
  C  C79  1  0.85650000  0.59970000  0.67160000  1.0
  N  N80  1  0.90130000  0.37440000  0.91180000  1.0
  N  N81  1  0.87050000  0.60650000  0.40210000  1.0
  N  N82  1  0.97940000  0.18650000  0.95950000  1.0
  N  N83  1  0.33210000  0.77460000  0.69020000  1.0
  N  N84  1  0.99600000  0.63730000  0.04180000  1.0
  N  N85  1  0.09870000  0.62560000  0.08820000  1.0
  N  N86  1  0.19190000  0.01090000  0.93530000  1.0
  N  N87  1  0.29720000  0.28920000  0.66030000  1.0
  N  N88  1  0.66790000  0.22540000  0.30980000  1.0
  N  N89  1  0.59870000  0.96550000  0.10170000  1.0
  N  N90  1  0.00400000  0.36270000  0.95820000  1.0
  N  N91  1  0.31120000  0.49340000  0.25970000  1.0
  N  N92  1  0.77600000  0.67550000  0.25970000  1.0
  N  N93  1  0.64820000  0.94490000  0.18600000  1.0
  N  N94  1  0.35180000  0.05510000  0.81400000  1.0
  N  N95  1  0.86520000  0.51810000  0.62360000  1.0
  N  N96  1  0.46890000  0.22010000  0.29550000  1.0
  N  N97  1  0.75360000  0.59500000  0.73880000  1.0
  N  N98  1  0.12950000  0.39350000  0.59790000  1.0
  N  N99  1  0.24640000  0.40500000  0.26120000  1.0
  N  N100  1  0.13480000  0.48190000  0.37640000  1.0
  N  N101  1  0.40130000  0.03450000  0.89830000  1.0
  N  N102  1  0.53110000  0.77990000  0.70450000  1.0
  N  N103  1  0.53530000  0.75770000  0.61330000  1.0
  N  N104  1  0.70280000  0.71080000  0.33970000  1.0
  N  N105  1  0.80810000  0.98910000  0.06470000  1.0
  N  N106  1  0.22400000  0.32450000  0.74030000  1.0
  N  N107  1  0.02060000  0.81350000  0.04050000  1.0
  N  N108  1  0.46470000  0.24230000  0.38670000  1.0
  N  N109  1  0.68880000  0.50660000  0.74030000  1.0
  O  O110  1  0.05400000  0.16670000  0.24580000  1.0
  O  O111  1  0.09720000  0.16110000  0.49960000  1.0
  O  O112  1  0.90280000  0.83890000  0.50040000  1.0
  O  O113  1  0.08940000  0.97730000  0.41910000  1.0
  O  O114  1  0.06730000  0.83920000  0.32250000  1.0
  O  O115  1  0.87920000  0.02880000  0.32470000  1.0
  O  O116  1  0.94600000  0.83330000  0.75420000  1.0
  O  O117  1  0.95430000  0.99890000  0.86020000  1.0
  O  O118  1  0.91060000  0.02270000  0.58090000  1.0
  O  O119  1  0.91980000  0.35580000  0.50020000  1.0
  O  O120  1  0.12080000  0.97120000  0.67530000  1.0
  O  O121  1  0.08020000  0.64420000  0.49980000  1.0
  O  O122  1  0.93270000  0.16080000  0.67750000  1.0
  O  O123  1  0.04570000  0.00110000  0.13980000  1.0
  O  O124  1  0.13390000  0.82660000  0.57580000  1.0
  O  O125  1  0.86610000  0.17340000  0.42420000  1.0
