# generated using pymatgen
data_Mn12H8C24N32Cl
_symmetry_space_group_name_H-M   'P 1'
_cell_length_a   18.91530000
_cell_length_b   18.91530000
_cell_length_c   18.91530000
_cell_angle_alpha   90.00000000
_cell_angle_beta   90.00000000
_cell_angle_gamma   90.00000000
_symmetry_Int_Tables_number   1
_chemical_formula_structural   Mn12H8C24N32Cl
_chemical_formula_sum   'Mn36 H24 C72 N96 Cl3'
_cell_volume   6767.67821548
_cell_formula_units_Z   3
loop_
 _symmetry_equiv_pos_site_id
 _symmetry_equiv_pos_as_xyz
  1  'x, y, z'
loop_
 _atom_site_type_symbol
 _atom_site_label
 _atom_site_symmetry_multiplicity
 _atom_site_fract_x
 _atom_site_fract_y
 _atom_site_fract_z
 _atom_site_occupancy
  Mn  Mn0  1  0.50000000  0.35958000  0.00000000  1.0
  Mn  Mn1  1  0.50000000  0.64042000  0.00000000  1.0
  Mn  Mn2  1  0.00000000  0.50000000  0.35958000  1.0
  Mn  Mn3  1  0.00000000  0.50000000  0.64042000  1.0
  Mn  Mn4  1  0.35958000  0.00000000  0.50000000  1.0
  Mn  Mn5  1  0.64042000  0.00000000  0.50000000  1.0
  Mn  Mn6  1  0.35958000  0.50000000  0.00000000  1.0
  Mn  Mn7  1  0.64042000  0.50000000  0.00000000  1.0
  Mn  Mn8  1  0.50000000  0.00000000  0.64042000  1.0
  Mn  Mn9  1  0.50000000  0.00000000  0.35958000  1.0
  Mn  Mn10  1  0.00000000  0.35958000  0.50000000  1.0
  Mn  Mn11  1  0.00000000  0.64042000  0.50000000  1.0
  Mn  Mn12  1  0.50000000  0.25840000  0.85740000  1.0
  Mn  Mn13  1  0.50000000  0.74160000  0.85740000  1.0
  Mn  Mn14  1  0.50000000  0.25840000  0.14260000  1.0
  Mn  Mn15  1  0.50000000  0.74160000  0.14260000  1.0
  Mn  Mn16  1  0.85740000  0.50000000  0.25840000  1.0
  Mn  Mn17  1  0.85740000  0.50000000  0.74160000  1.0
  Mn  Mn18  1  0.14260000  0.50000000  0.25840000  1.0
  Mn  Mn19  1  0.14260000  0.50000000  0.74160000  1.0
  Mn  Mn20  1  0.25840000  0.85740000  0.50000000  1.0
  Mn  Mn21  1  0.74160000  0.85740000  0.50000000  1.0
  Mn  Mn22  1  0.25840000  0.14260000  0.50000000  1.0
  Mn  Mn23  1  0.74160000  0.14260000  0.50000000  1.0
  Mn  Mn24  1  0.25840000  0.50000000  0.14260000  1.0
  Mn  Mn25  1  0.74160000  0.50000000  0.14260000  1.0
  Mn  Mn26  1  0.25840000  0.50000000  0.85740000  1.0
  Mn  Mn27  1  0.74160000  0.50000000  0.85740000  1.0
  Mn  Mn28  1  0.50000000  0.85740000  0.74160000  1.0
  Mn  Mn29  1  0.50000000  0.85740000  0.25840000  1.0
  Mn  Mn30  1  0.50000000  0.14260000  0.74160000  1.0
  Mn  Mn31  1  0.50000000  0.14260000  0.25840000  1.0
  Mn  Mn32  1  0.85740000  0.25840000  0.50000000  1.0
  Mn  Mn33  1  0.85740000  0.74160000  0.50000000  1.0
  Mn  Mn34  1  0.14260000  0.25840000  0.50000000  1.0
  Mn  Mn35  1  0.14260000  0.74160000  0.50000000  1.0
  H  H36  1  0.38710000  0.23770000  0.76230000  1.0
  H  H37  1  0.61290000  0.76230000  0.76230000  1.0
  H  H38  1  0.61290000  0.23770000  0.23770000  1.0
  H  H39  1  0.38710000  0.76230000  0.23770000  1.0
  H  H40  1  0.76230000  0.38710000  0.23770000  1.0
  H  H41  1  0.76230000  0.61290000  0.76230000  1.0
  H  H42  1  0.23770000  0.61290000  0.23770000  1.0
  H  H43  1  0.23770000  0.38710000  0.76230000  1.0
  H  H44  1  0.23770000  0.76230000  0.38710000  1.0
  H  H45  1  0.76230000  0.76230000  0.61290000  1.0
  H  H46  1  0.23770000  0.23770000  0.61290000  1.0
  H  H47  1  0.76230000  0.23770000  0.38710000  1.0
  H  H48  1  0.23770000  0.38710000  0.23770000  1.0
  H  H49  1  0.76230000  0.61290000  0.23770000  1.0
  H  H50  1  0.23770000  0.61290000  0.76230000  1.0
  H  H51  1  0.76230000  0.38710000  0.76230000  1.0
  H  H52  1  0.38710000  0.76230000  0.76230000  1.0
  H  H53  1  0.61290000  0.76230000  0.23770000  1.0
  H  H54  1  0.61290000  0.23770000  0.76230000  1.0
  H  H55  1  0.38710000  0.23770000  0.23770000  1.0
  H  H56  1  0.76230000  0.23770000  0.61290000  1.0
  H  H57  1  0.76230000  0.76230000  0.38710000  1.0
  H  H58  1  0.23770000  0.23770000  0.38710000  1.0
  H  H59  1  0.23770000  0.76230000  0.61290000  1.0
  C  C60  1  0.34880000  0.34880000  0.83440000  1.0
  C  C61  1  0.31690000  0.31690000  0.77210000  1.0
  C  C62  1  0.65120000  0.65120000  0.83440000  1.0
  C  C63  1  0.68310000  0.68310000  0.77210000  1.0
  C  C64  1  0.65120000  0.34880000  0.16560000  1.0
  C  C65  1  0.68310000  0.31690000  0.22790000  1.0
  C  C66  1  0.34880000  0.65120000  0.16560000  1.0
  C  C67  1  0.31690000  0.68310000  0.22790000  1.0
  C  C68  1  0.83440000  0.34880000  0.34880000  1.0
  C  C69  1  0.77210000  0.31690000  0.31690000  1.0
  C  C70  1  0.83440000  0.65120000  0.65120000  1.0
  C  C71  1  0.77210000  0.68310000  0.68310000  1.0
  C  C72  1  0.16560000  0.65120000  0.34880000  1.0
  C  C73  1  0.22790000  0.68310000  0.31690000  1.0
  C  C74  1  0.16560000  0.34880000  0.65120000  1.0
  C  C75  1  0.22790000  0.31690000  0.68310000  1.0
  C  C76  1  0.34880000  0.83440000  0.34880000  1.0
  C  C77  1  0.31690000  0.77210000  0.31690000  1.0
  C  C78  1  0.65120000  0.83440000  0.65120000  1.0
  C  C79  1  0.68310000  0.77210000  0.68310000  1.0
  C  C80  1  0.34880000  0.16560000  0.65120000  1.0
  C  C81  1  0.31690000  0.22790000  0.68310000  1.0
  C  C82  1  0.65120000  0.16560000  0.34880000  1.0
  C  C83  1  0.68310000  0.22790000  0.31690000  1.0
  C  C84  1  0.34880000  0.34880000  0.16560000  1.0
  C  C85  1  0.31690000  0.31690000  0.22790000  1.0
  C  C86  1  0.65120000  0.65120000  0.16560000  1.0
  C  C87  1  0.68310000  0.68310000  0.22790000  1.0
  C  C88  1  0.34880000  0.65120000  0.83440000  1.0
  C  C89  1  0.31690000  0.68310000  0.77210000  1.0
  C  C90  1  0.65120000  0.34880000  0.83440000  1.0
  C  C91  1  0.68310000  0.31690000  0.77210000  1.0
  C  C92  1  0.34880000  0.83440000  0.65120000  1.0
  C  C93  1  0.31690000  0.77210000  0.68310000  1.0
  C  C94  1  0.65120000  0.83440000  0.34880000  1.0
  C  C95  1  0.68310000  0.77210000  0.31690000  1.0
  C  C96  1  0.65120000  0.16560000  0.65120000  1.0
  C  C97  1  0.68310000  0.22790000  0.68310000  1.0
  C  C98  1  0.34880000  0.16560000  0.34880000  1.0
  C  C99  1  0.31690000  0.22790000  0.31690000  1.0
  C  C100  1  0.83440000  0.34880000  0.65120000  1.0
  C  C101  1  0.77210000  0.31690000  0.68310000  1.0
  C  C102  1  0.83440000  0.65120000  0.34880000  1.0
  C  C103  1  0.77210000  0.68310000  0.31690000  1.0
  C  C104  1  0.16560000  0.34880000  0.34880000  1.0
  C  C105  1  0.22790000  0.31690000  0.31690000  1.0
  C  C106  1  0.16560000  0.65120000  0.65120000  1.0
  C  C107  1  0.22790000  0.68310000  0.68310000  1.0
  C  C108  1  0.34680000  0.25760000  0.74240000  1.0
  C  C109  1  0.65320000  0.74240000  0.74240000  1.0
  C  C110  1  0.65320000  0.25760000  0.25760000  1.0
  C  C111  1  0.34680000  0.74240000  0.25760000  1.0
  C  C112  1  0.74240000  0.34680000  0.25760000  1.0
  C  C113  1  0.74240000  0.65320000  0.74240000  1.0
  C  C114  1  0.25760000  0.65320000  0.25760000  1.0
  C  C115  1  0.25760000  0.34680000  0.74240000  1.0
  C  C116  1  0.25760000  0.74240000  0.34680000  1.0
  C  C117  1  0.74240000  0.74240000  0.65320000  1.0
  C  C118  1  0.25760000  0.25760000  0.65320000  1.0
  C  C119  1  0.74240000  0.25760000  0.34680000  1.0
  C  C120  1  0.25760000  0.34680000  0.25760000  1.0
  C  C121  1  0.74240000  0.65320000  0.25760000  1.0
  C  C122  1  0.25760000  0.65320000  0.74240000  1.0
  C  C123  1  0.74240000  0.34680000  0.74240000  1.0
  C  C124  1  0.34680000  0.74240000  0.74240000  1.0
  C  C125  1  0.65320000  0.74240000  0.25760000  1.0
  C  C126  1  0.65320000  0.25760000  0.74240000  1.0
  C  C127  1  0.34680000  0.25760000  0.25760000  1.0
  C  C128  1  0.74240000  0.25760000  0.65320000  1.0
  C  C129  1  0.74240000  0.74240000  0.34680000  1.0
  C  C130  1  0.25760000  0.25760000  0.34680000  1.0
  C  C131  1  0.25760000  0.74240000  0.65320000  1.0
  N  N132  1  0.41677000  0.36733000  0.92018000  1.0
  N  N133  1  0.40639000  0.32334000  0.86722000  1.0
  N  N134  1  0.58323000  0.63267000  0.92018000  1.0
  N  N135  1  0.59361000  0.67666000  0.86722000  1.0
  N  N136  1  0.58323000  0.36733000  0.07982000  1.0
  N  N137  1  0.59361000  0.32334000  0.13278000  1.0
  N  N138  1  0.41677000  0.63267000  0.07982000  1.0
  N  N139  1  0.40639000  0.67666000  0.13278000  1.0
  N  N140  1  0.92018000  0.41677000  0.36733000  1.0
  N  N141  1  0.86722000  0.40639000  0.32334000  1.0
  N  N142  1  0.92018000  0.58323000  0.63267000  1.0
  N  N143  1  0.86722000  0.59361000  0.67666000  1.0
  N  N144  1  0.07982000  0.58323000  0.36733000  1.0
  N  N145  1  0.13278000  0.59361000  0.32334000  1.0
  N  N146  1  0.07982000  0.41677000  0.63267000  1.0
  N  N147  1  0.13278000  0.40639000  0.67666000  1.0
  N  N148  1  0.36733000  0.92018000  0.41677000  1.0
  N  N149  1  0.32334000  0.86722000  0.40639000  1.0
  N  N150  1  0.63267000  0.92018000  0.58323000  1.0
  N  N151  1  0.67666000  0.86722000  0.59361000  1.0
  N  N152  1  0.36733000  0.07982000  0.58323000  1.0
  N  N153  1  0.32334000  0.13278000  0.59361000  1.0
  N  N154  1  0.63267000  0.07982000  0.41677000  1.0
  N  N155  1  0.67666000  0.13278000  0.40639000  1.0
  N  N156  1  0.36733000  0.41677000  0.07982000  1.0
  N  N157  1  0.32334000  0.40639000  0.13278000  1.0
  N  N158  1  0.63267000  0.58323000  0.07982000  1.0
  N  N159  1  0.67666000  0.59361000  0.13278000  1.0
  N  N160  1  0.36733000  0.58323000  0.92018000  1.0
  N  N161  1  0.32334000  0.59361000  0.86722000  1.0
  N  N162  1  0.63267000  0.41677000  0.92018000  1.0
  N  N163  1  0.67666000  0.40639000  0.86722000  1.0
  N  N164  1  0.41677000  0.92018000  0.63267000  1.0
  N  N165  1  0.40639000  0.86722000  0.67666000  1.0
  N  N166  1  0.58323000  0.92018000  0.36733000  1.0
  N  N167  1  0.59361000  0.86722000  0.32334000  1.0
  N  N168  1  0.58323000  0.07982000  0.63267000  1.0
  N  N169  1  0.59361000  0.13278000  0.67666000  1.0
  N  N170  1  0.41677000  0.07982000  0.36733000  1.0
  N  N171  1  0.40639000  0.13278000  0.32334000  1.0
  N  N172  1  0.92018000  0.36733000  0.58323000  1.0
  N  N173  1  0.86722000  0.32334000  0.59361000  1.0
  N  N174  1  0.92018000  0.63267000  0.41677000  1.0
  N  N175  1  0.86722000  0.67666000  0.40639000  1.0
  N  N176  1  0.07982000  0.36733000  0.41677000  1.0
  N  N177  1  0.13278000  0.32334000  0.40639000  1.0
  N  N178  1  0.07982000  0.63267000  0.58323000  1.0
  N  N179  1  0.13278000  0.67666000  0.59361000  1.0
  N  N180  1  0.58323000  0.63267000  0.07982000  1.0
  N  N181  1  0.59361000  0.67666000  0.13278000  1.0
  N  N182  1  0.41677000  0.36733000  0.07982000  1.0
  N  N183  1  0.40639000  0.32334000  0.13278000  1.0
  N  N184  1  0.41677000  0.63267000  0.92018000  1.0
  N  N185  1  0.40639000  0.67666000  0.86722000  1.0
  N  N186  1  0.58323000  0.36733000  0.92018000  1.0
  N  N187  1  0.59361000  0.32334000  0.86722000  1.0
  N  N188  1  0.07982000  0.58323000  0.63267000  1.0
  N  N189  1  0.13278000  0.59361000  0.67666000  1.0
  N  N190  1  0.07982000  0.41677000  0.36733000  1.0
  N  N191  1  0.13278000  0.40639000  0.32334000  1.0
  N  N192  1  0.92018000  0.41677000  0.63267000  1.0
  N  N193  1  0.86722000  0.40639000  0.67666000  1.0
  N  N194  1  0.92018000  0.58323000  0.36733000  1.0
  N  N195  1  0.86722000  0.59361000  0.32334000  1.0
  N  N196  1  0.63267000  0.07982000  0.58323000  1.0
  N  N197  1  0.67666000  0.13278000  0.59361000  1.0
  N  N198  1  0.36733000  0.07982000  0.41677000  1.0
  N  N199  1  0.32334000  0.13278000  0.40639000  1.0
  N  N200  1  0.63267000  0.92018000  0.41677000  1.0
  N  N201  1  0.67666000  0.86722000  0.40639000  1.0
  N  N202  1  0.36733000  0.92018000  0.58323000  1.0
  N  N203  1  0.32334000  0.86722000  0.59361000  1.0
  N  N204  1  0.63267000  0.58323000  0.92018000  1.0
  N  N205  1  0.67666000  0.59361000  0.86722000  1.0
  N  N206  1  0.36733000  0.41677000  0.92018000  1.0
  N  N207  1  0.32334000  0.40639000  0.86722000  1.0
  N  N208  1  0.63267000  0.41677000  0.07982000  1.0
  N  N209  1  0.67666000  0.40639000  0.13278000  1.0
  N  N210  1  0.36733000  0.58323000  0.07982000  1.0
  N  N211  1  0.32334000  0.59361000  0.13278000  1.0
  N  N212  1  0.58323000  0.07982000  0.36733000  1.0
  N  N213  1  0.59361000  0.13278000  0.32334000  1.0
  N  N214  1  0.41677000  0.07982000  0.63267000  1.0
  N  N215  1  0.40639000  0.13278000  0.67666000  1.0
  N  N216  1  0.41677000  0.92018000  0.36733000  1.0
  N  N217  1  0.40639000  0.86722000  0.32334000  1.0
  N  N218  1  0.58323000  0.92018000  0.63267000  1.0
  N  N219  1  0.59361000  0.86722000  0.67666000  1.0
  N  N220  1  0.07982000  0.63267000  0.41677000  1.0
  N  N221  1  0.13278000  0.67666000  0.40639000  1.0
  N  N222  1  0.07982000  0.36733000  0.58323000  1.0
  N  N223  1  0.13278000  0.32334000  0.59361000  1.0
  N  N224  1  0.92018000  0.63267000  0.58323000  1.0
  N  N225  1  0.86722000  0.67666000  0.59361000  1.0
  N  N226  1  0.92018000  0.36733000  0.41677000  1.0
  N  N227  1  0.86722000  0.32334000  0.40639000  1.0
  Cl  Cl228  1  0.50000000  0.50000000  0.00000000  1.0
  Cl  Cl229  1  0.00000000  0.50000000  0.50000000  1.0
  Cl  Cl230  1  0.50000000  0.00000000  0.50000000  1.0
