# generated using pymatgen
data_Ag14H6C24N2(O2F3)3
_symmetry_space_group_name_H-M   'P 1'
_cell_length_a   10.80010000
_cell_length_b   11.62880000
_cell_length_c   25.31830000
_cell_angle_alpha   89.09400000
_cell_angle_beta   87.42500000
_cell_angle_gamma   78.44000000
_symmetry_Int_Tables_number   1
_chemical_formula_structural   Ag14H6C24N2(O2F3)3
_chemical_formula_sum   'Ag28 H12 C48 N4 O12 F18'
_cell_volume   3112.05953997
_cell_formula_units_Z   2
loop_
 _symmetry_equiv_pos_site_id
 _symmetry_equiv_pos_as_xyz
  1  'x, y, z'
loop_
 _atom_site_type_symbol
 _atom_site_label
 _atom_site_symmetry_multiplicity
 _atom_site_fract_x
 _atom_site_fract_y
 _atom_site_fract_z
 _atom_site_occupancy
  Ag  Ag0  1  0.74095000  0.06095000  0.00639000  1.0
  Ag  Ag1  1  0.49776000  0.05057000  0.10954000  1.0
  Ag  Ag2  1  0.48760000  0.02851000  0.01078000  1.0
  Ag  Ag3  1  0.52754000  0.19291000  0.93139000  1.0
  Ag  Ag4  1  0.58117000  0.28413000  0.03260000  1.0
  Ag  Ag5  1  0.62310000  0.42934000  0.93438000  1.0
  Ag  Ag6  1  0.59421000  0.42486000  0.57389000  1.0
  Ag  Ag7  1  0.50041000  0.19189000  0.56557000  1.0
  Ag  Ag8  1  0.59570000  0.29161000  0.47084000  1.0
  Ag  Ag9  1  0.73828000  0.06418000  0.49852000  1.0
  Ag  Ag10  1  0.48082000  0.04717000  0.47810000  1.0
  Ag  Ag11  1  0.47822000  0.93093000  0.57658000  1.0
  Ag  Ag12  1  0.44760000  0.95390000  0.63393000  1.0
  Ag  Ag13  1  0.02278000  0.33082000  0.74956000  1.0
  Ag  Ag14  1  0.25905000  0.93905000  0.99361000  1.0
  Ag  Ag15  1  0.50224000  0.94943000  0.89046000  1.0
  Ag  Ag16  1  0.51240000  0.97149000  0.98922000  1.0
  Ag  Ag17  1  0.47246000  0.80709000  0.06861000  1.0
  Ag  Ag18  1  0.41883000  0.71587000  0.96740000  1.0
  Ag  Ag19  1  0.37690000  0.57066000  0.06562000  1.0
  Ag  Ag20  1  0.40579000  0.57514000  0.42611000  1.0
  Ag  Ag21  1  0.49959000  0.80811000  0.43443000  1.0
  Ag  Ag22  1  0.40430000  0.70839000  0.52916000  1.0
  Ag  Ag23  1  0.26172000  0.93582000  0.50148000  1.0
  Ag  Ag24  1  0.51918000  0.95283000  0.52190000  1.0
  Ag  Ag25  1  0.52178000  0.06907000  0.42342000  1.0
  Ag  Ag26  1  0.55240000  0.04610000  0.36607000  1.0
  Ag  Ag27  1  0.97722000  0.66918000  0.25044000  1.0
  H  H28  1  0.85720000  0.32010000  0.84680000  1.0
  H  H29  1  0.03560000  0.16340000  0.97140000  1.0
  H  H30  1  0.22380000  0.22080000  0.83630000  1.0
  H  H31  1  0.19960000  0.21480000  0.65890000  1.0
  H  H32  1  0.01410000  0.15710000  0.53210000  1.0
  H  H33  1  0.83300000  0.31510000  0.66110000  1.0
  H  H34  1  0.14280000  0.67990000  0.15320000  1.0
  H  H35  1  0.96440000  0.83660000  0.02860000  1.0
  H  H36  1  0.77620000  0.77920000  0.16370000  1.0
  H  H37  1  0.80040000  0.78520000  0.34110000  1.0
  H  H38  1  0.98590000  0.84290000  0.46790000  1.0
  H  H39  1  0.16700000  0.68490000  0.33890000  1.0
  C  C40  1  0.93250000  0.28560000  0.86210000  1.0
  C  C41  1  0.92640000  0.24370000  0.91350000  1.0
  C  C42  1  0.03660000  0.19080000  0.93670000  1.0
  C  C43  1  0.15040000  0.17940000  0.90640000  1.0
  C  C44  1  0.14770000  0.22630000  0.85570000  1.0
  C  C45  1  0.80480000  0.25100000  0.94090000  1.0
  C  C46  1  0.70530000  0.24120000  0.96350000  1.0
  C  C47  1  0.73010000  0.87800000  0.07230000  1.0
  C  C48  1  0.62900000  0.92560000  0.05720000  1.0
  C  C49  1  0.12390000  0.22050000  0.64200000  1.0
  C  C50  1  0.12740000  0.17490000  0.59190000  1.0
  C  C51  1  0.01470000  0.18470000  0.56640000  1.0
  C  C52  1  0.90260000  0.23690000  0.59320000  1.0
  C  C53  1  0.90790000  0.27980000  0.64340000  1.0
  C  C54  1  0.78420000  0.24340000  0.56880000  1.0
  C  C55  1  0.68800000  0.23930000  0.54570000  1.0
  C  C56  1  0.24710000  0.11680000  0.56890000  1.0
  C  C57  1  0.35320000  0.06850000  0.55380000  1.0
  C  C58  1  0.30820000  0.45130000  0.56470000  1.0
  C  C59  1  0.16910000  0.51580000  0.56600000  1.0
  C  C60  1  0.66260000  0.54830000  0.07550000  1.0
  C  C61  1  0.79710000  0.48500000  0.08040000  1.0
  C  C62  1  0.33370000  0.30370000  0.42070000  1.0
  C  C63  1  0.20280000  0.37030000  0.40460000  1.0
  C  C64  1  0.06750000  0.71440000  0.13790000  1.0
  C  C65  1  0.07360000  0.75630000  0.08650000  1.0
  C  C66  1  0.96340000  0.80920000  0.06330000  1.0
  C  C67  1  0.84960000  0.82060000  0.09360000  1.0
  C  C68  1  0.85230000  0.77370000  0.14430000  1.0
  C  C69  1  0.19520000  0.74900000  0.05910000  1.0
  C  C70  1  0.29470000  0.75880000  0.03650000  1.0
  C  C71  1  0.26990000  0.12200000  0.92770000  1.0
  C  C72  1  0.37100000  0.07440000  0.94280000  1.0
  C  C73  1  0.87610000  0.77950000  0.35800000  1.0
  C  C74  1  0.87260000  0.82510000  0.40810000  1.0
  C  C75  1  0.98530000  0.81530000  0.43360000  1.0
  C  C76  1  0.09740000  0.76310000  0.40680000  1.0
  C  C77  1  0.09210000  0.72020000  0.35660000  1.0
  C  C78  1  0.21580000  0.75660000  0.43120000  1.0
  C  C79  1  0.31200000  0.76070000  0.45430000  1.0
  C  C80  1  0.75290000  0.88320000  0.43110000  1.0
  C  C81  1  0.64680000  0.93150000  0.44620000  1.0
  C  C82  1  0.69180000  0.54870000  0.43530000  1.0
  C  C83  1  0.83090000  0.48420000  0.43400000  1.0
  C  C84  1  0.33740000  0.45170000  0.92450000  1.0
  C  C85  1  0.20290000  0.51500000  0.91960000  1.0
  C  C86  1  0.66630000  0.69630000  0.57930000  1.0
  C  C87  1  0.79720000  0.62970000  0.59540000  1.0
  N  N88  1  0.04020000  0.27940000  0.83320000  1.0
  N  N89  1  0.01720000  0.27240000  0.66730000  1.0
  N  N90  1  0.95980000  0.72060000  0.16680000  1.0
  N  N91  1  0.98280000  0.72760000  0.33270000  1.0
  O  O92  1  0.32480000  0.34990000  0.57550000  1.0
  O  O93  1  0.38880000  0.50950000  0.55290000  1.0
  O  O94  1  0.59210000  0.49020000  0.05610000  1.0
  O  O95  1  0.36370000  0.35120000  0.90790000  1.0
  O  O96  1  0.34280000  0.19490000  0.42250000  1.0
  O  O97  1  0.58930000  0.63640000  0.56890000  1.0
  O  O98  1  0.67520000  0.65010000  0.42450000  1.0
  O  O99  1  0.61120000  0.49050000  0.44710000  1.0
  O  O100  1  0.40790000  0.50980000  0.94390000  1.0
  O  O101  1  0.63630000  0.64880000  0.09210000  1.0
  O  O102  1  0.65720000  0.80510000  0.57750000  1.0
  O  O103  1  0.41070000  0.36360000  0.43110000  1.0
  F  F104  1  0.13860000  0.54260000  0.61650000  1.0
  F  F105  1  0.09130000  0.45350000  0.55940000  1.0
  F  F106  1  0.14500000  0.61150000  0.54260000  1.0
  F  F107  1  0.87810000  0.54610000  0.07220000  1.0
  F  F108  1  0.83220000  0.38910000  0.05590000  1.0
  F  F109  1  0.81770000  0.45580000  0.13170000  1.0
  F  F110  1  0.20240000  0.36900000  0.35330000  1.0
  F  F111  1  0.11180000  0.32240000  0.42090000  1.0
  F  F112  1  0.17720000  0.47550000  0.41820000  1.0
  F  F113  1  0.86140000  0.45740000  0.38350000  1.0
  F  F114  1  0.90870000  0.54650000  0.44060000  1.0
  F  F115  1  0.85500000  0.38850000  0.45740000  1.0
  F  F116  1  0.12190000  0.45390000  0.92780000  1.0
  F  F117  1  0.16780000  0.61090000  0.94410000  1.0
  F  F118  1  0.18230000  0.54420000  0.86830000  1.0
  F  F119  1  0.79760000  0.63100000  0.64670000  1.0
  F  F120  1  0.88820000  0.67760000  0.57910000  1.0
  F  F121  1  0.82280000  0.52450000  0.58180000  1.0
