# generated using pymatgen
data_Zn4H13C9SN16O7
_symmetry_space_group_name_H-M   'P 1'
_cell_length_a   7.42670000
_cell_length_b   12.90820000
_cell_length_c   12.90820000
_cell_angle_alpha   92.14510000
_cell_angle_beta   94.53440000
_cell_angle_gamma   85.46560000
_symmetry_Int_Tables_number   1
_chemical_formula_structural   Zn4H13C9SN16O7
_chemical_formula_sum   'Zn8 H26 C18 S2 N32 O14'
_cell_volume   1229.10919088
_cell_formula_units_Z   2
loop_
 _symmetry_equiv_pos_site_id
 _symmetry_equiv_pos_as_xyz
  1  'x, y, z'
loop_
 _atom_site_type_symbol
 _atom_site_label
 _atom_site_symmetry_multiplicity
 _atom_site_fract_x
 _atom_site_fract_y
 _atom_site_fract_z
 _atom_site_occupancy
  Zn  Zn0  1  0.72233000  0.38986000  0.78700000  1.0
  Zn  Zn1  1  0.27767000  0.78700000  0.38986000  1.0
  Zn  Zn2  1  0.27767000  0.61014000  0.21300000  1.0
  Zn  Zn3  1  0.72233000  0.21300000  0.61014000  1.0
  Zn  Zn4  1  0.50000000  0.84553000  0.84553000  1.0
  Zn  Zn5  1  0.50000000  0.15447000  0.15447000  1.0
  Zn  Zn6  1  0.00000000  0.82075000  0.82075000  1.0
  Zn  Zn7  1  0.00000000  0.17925000  0.17925000  1.0
  H  H8  1  0.05820000  0.50400000  0.73120000  1.0
  H  H9  1  0.11570000  0.60840000  0.73660000  1.0
  H  H10  1  0.93840000  0.73820000  0.13060000  1.0
  H  H11  1  0.86850000  0.78880000  0.03660000  1.0
  H  H12  1  0.50290000  0.59350000  0.83590000  1.0
  H  H13  1  0.51310000  0.69220000  0.04500000  1.0
  H  H14  1  0.94180000  0.73120000  0.50400000  1.0
  H  H15  1  0.88430000  0.73660000  0.60840000  1.0
  H  H16  1  0.06160000  0.13060000  0.73820000  1.0
  H  H17  1  0.13150000  0.03660000  0.78880000  1.0
  H  H18  1  0.49710000  0.83590000  0.59350000  1.0
  H  H19  1  0.48690000  0.04500000  0.69220000  1.0
  H  H20  1  0.94180000  0.49600000  0.26880000  1.0
  H  H21  1  0.88430000  0.39160000  0.26340000  1.0
  H  H22  1  0.06160000  0.26180000  0.86940000  1.0
  H  H23  1  0.13150000  0.21120000  0.96340000  1.0
  H  H24  1  0.49710000  0.40650000  0.16410000  1.0
  H  H25  1  0.48690000  0.30780000  0.95500000  1.0
  H  H26  1  0.05820000  0.26880000  0.49600000  1.0
  H  H27  1  0.11570000  0.26340000  0.39160000  1.0
  H  H28  1  0.93840000  0.86940000  0.26180000  1.0
  H  H29  1  0.86850000  0.96340000  0.21120000  1.0
  H  H30  1  0.50290000  0.16410000  0.40650000  1.0
  H  H31  1  0.51310000  0.95500000  0.30780000  1.0
  H  H32  1  0.89600000  0.35470000  0.64530000  1.0
  H  H33  1  0.10400000  0.64530000  0.35470000  1.0
  C  C34  1  0.61810000  0.61127000  0.82365000  1.0
  C  C35  1  0.89240000  0.59974000  0.78910000  1.0
  C  C36  1  0.39230000  0.71360000  0.02766000  1.0
  C  C37  1  0.10800000  0.73909000  0.03359000  1.0
  C  C38  1  0.38190000  0.82365000  0.61127000  1.0
  C  C39  1  0.10760000  0.78910000  0.59974000  1.0
  C  C40  1  0.60770000  0.02766000  0.71360000  1.0
  C  C41  1  0.89200000  0.03359000  0.73909000  1.0
  C  C42  1  0.38190000  0.38873000  0.17635000  1.0
  C  C43  1  0.10760000  0.40026000  0.21090000  1.0
  C  C44  1  0.60770000  0.28640000  0.97234000  1.0
  C  C45  1  0.89200000  0.26091000  0.96641000  1.0
  C  C46  1  0.61810000  0.17635000  0.38873000  1.0
  C  C47  1  0.89240000  0.21090000  0.40026000  1.0
  C  C48  1  0.39230000  0.97234000  0.28640000  1.0
  C  C49  1  0.10800000  0.96641000  0.26091000  1.0
  C  C50  1  0.59020000  0.97403000  0.02597000  1.0
  C  C51  1  0.40980000  0.02597000  0.97403000  1.0
  S  S52  1  0.35188000  0.31489000  0.68511000  1.0
  S  S53  1  0.64812000  0.68511000  0.31489000  1.0
  N  N54  1  0.66300000  0.70691000  0.82481000  1.0
  N  N55  1  0.84290000  0.70033000  0.80161000  1.0
  N  N56  1  0.75600000  0.54016000  0.80288000  1.0
  N  N57  1  0.06400000  0.56165000  0.77005000  1.0
  N  N58  1  0.33770000  0.76565000  0.94479000  1.0
  N  N59  1  0.15050000  0.78357000  0.94843000  1.0
  N  N60  1  0.25630000  0.69393000  0.08557000  1.0
  N  N61  1  0.93660000  0.73532000  0.06216000  1.0
  N  N62  1  0.33700000  0.82481000  0.70691000  1.0
  N  N63  1  0.15710000  0.80161000  0.70033000  1.0
  N  N64  1  0.24400000  0.80288000  0.54016000  1.0
  N  N65  1  0.93600000  0.77005000  0.56165000  1.0
  N  N66  1  0.66230000  0.94479000  0.76565000  1.0
  N  N67  1  0.84950000  0.94843000  0.78357000  1.0
  N  N68  1  0.74370000  0.08557000  0.69393000  1.0
  N  N69  1  0.06340000  0.06216000  0.73532000  1.0
  N  N70  1  0.33700000  0.29309000  0.17519000  1.0
  N  N71  1  0.15710000  0.29967000  0.19839000  1.0
  N  N72  1  0.24400000  0.45984000  0.19712000  1.0
  N  N73  1  0.93600000  0.43835000  0.22995000  1.0
  N  N74  1  0.66230000  0.23435000  0.05521000  1.0
  N  N75  1  0.84950000  0.21643000  0.05157000  1.0
  N  N76  1  0.74370000  0.30607000  0.91443000  1.0
  N  N77  1  0.06340000  0.26468000  0.93784000  1.0
  N  N78  1  0.66300000  0.17519000  0.29309000  1.0
  N  N79  1  0.84290000  0.19839000  0.29967000  1.0
  N  N80  1  0.75600000  0.19712000  0.45984000  1.0
  N  N81  1  0.06400000  0.22995000  0.43835000  1.0
  N  N82  1  0.33770000  0.05521000  0.23435000  1.0
  N  N83  1  0.15050000  0.05157000  0.21643000  1.0
  N  N84  1  0.25630000  0.91443000  0.30607000  1.0
  N  N85  1  0.93660000  0.93784000  0.26468000  1.0
  O  O86  1  0.46180000  0.39453000  0.74027000  1.0
  O  O87  1  0.65610000  0.89261000  0.98257000  1.0
  O  O88  1  0.53820000  0.74027000  0.39453000  1.0
  O  O89  1  0.34390000  0.98257000  0.89261000  1.0
  O  O90  1  0.53820000  0.60547000  0.25973000  1.0
  O  O91  1  0.34390000  0.10739000  0.01743000  1.0
  O  O92  1  0.46180000  0.25973000  0.60547000  1.0
  O  O93  1  0.65610000  0.01743000  0.10739000  1.0
  O  O94  1  0.19200000  0.36848000  0.63152000  1.0
  O  O95  1  0.30200000  0.24176000  0.75824000  1.0
  O  O96  1  0.86010000  0.31291000  0.68709000  1.0
  O  O97  1  0.80800000  0.63152000  0.36848000  1.0
  O  O98  1  0.69800000  0.75824000  0.24176000  1.0
  O  O99  1  0.13990000  0.68709000  0.31291000  1.0
