# generated using pymatgen
data_Mn2H31(C11O5)2
_symmetry_space_group_name_H-M   'P 1'
_cell_length_a   13.08500000
_cell_length_b   14.10600000
_cell_length_c   18.17500000
_cell_angle_alpha   90.00000000
_cell_angle_beta   90.00000000
_cell_angle_gamma   90.00000000
_symmetry_Int_Tables_number   1
_chemical_formula_structural   Mn2H31(C11O5)2
_chemical_formula_sum   'Mn8 H124 C88 O40'
_cell_volume   3354.68715675
_cell_formula_units_Z   4
loop_
 _symmetry_equiv_pos_site_id
 _symmetry_equiv_pos_as_xyz
  1  'x, y, z'
loop_
 _atom_site_type_symbol
 _atom_site_label
 _atom_site_symmetry_multiplicity
 _atom_site_fract_x
 _atom_site_fract_y
 _atom_site_fract_z
 _atom_site_occupancy
  Mn  Mn0  1  0.24024000  0.48619000  0.42018000  1.0
  Mn  Mn1  1  0.28306000  0.51069000  0.58329000  1.0
  Mn  Mn2  1  0.25976000  0.51381000  0.92018000  1.0
  Mn  Mn3  1  0.21694000  0.48931000  0.08329000  1.0
  Mn  Mn4  1  0.75976000  0.98619000  0.07982000  1.0
  Mn  Mn5  1  0.71694000  0.01069000  0.91671000  1.0
  Mn  Mn6  1  0.74024000  0.01381000  0.57982000  1.0
  Mn  Mn7  1  0.78306000  0.98931000  0.41671000  1.0
  H  H8  1  0.72600000  0.27750000  0.34830000  1.0
  H  H9  1  0.81650000  0.30840000  0.39950000  1.0
  H  H10  1  0.72970000  0.38080000  0.38000000  1.0
  H  H11  1  0.70830000  0.30750000  0.56800000  1.0
  H  H12  1  0.78300000  0.36700000  0.51810000  1.0
  H  H13  1  0.67440000  0.48550000  0.51460000  1.0
  H  H14  1  0.60650000  0.43100000  0.57220000  1.0
  H  H15  1  0.58210000  0.44120000  0.42090000  1.0
  H  H16  1  0.53150000  0.20650000  0.36570000  1.0
  H  H17  1  0.56190000  0.30680000  0.33560000  1.0
  H  H18  1  0.45360000  0.29070000  0.37030000  1.0
  H  H19  1  0.51180000  0.17810000  0.49450000  1.0
  H  H20  1  0.43530000  0.26300000  0.50240000  1.0
  H  H21  1  0.53150000  0.25700000  0.55350000  1.0
  H  H22  1  0.92360000  0.46170000  0.57800000  1.0
  H  H23  1  0.84640000  0.54140000  0.60090000  1.0
  H  H24  1  0.95380000  0.53530000  0.63880000  1.0
  H  H25  1  0.94040000  0.59750000  0.42160000  1.0
  H  H26  1  0.86850000  0.52280000  0.45980000  1.0
  H  H27  1  0.74980000  0.62820000  0.47630000  1.0
  H  H28  1  0.81370000  0.69660000  0.42550000  1.0
  H  H29  1  0.79940000  0.69600000  0.57680000  1.0
  H  H30  1  0.96980000  0.78810000  0.64250000  1.0
  H  H31  1  0.04470000  0.70150000  0.64570000  1.0
  H  H32  1  0.92880000  0.68770000  0.66480000  1.0
  H  H33  1  0.02230000  0.82230000  0.52020000  1.0
  H  H34  1  0.00760000  0.74830000  0.45660000  1.0
  H  H35  1  0.09510000  0.73440000  0.51450000  1.0
  H  H36  1  0.35750000  0.53050000  0.19510000  1.0
  H  H37  1  0.38680000  0.47880000  0.26850000  1.0
  H  H38  1  0.34100000  0.58150000  0.27090000  1.0
  H  H39  1  0.77400000  0.72250000  0.84830000  1.0
  H  H40  1  0.68350000  0.69160000  0.89950000  1.0
  H  H41  1  0.77030000  0.61920000  0.88000000  1.0
  H  H42  1  0.79170000  0.69250000  0.06800000  1.0
  H  H43  1  0.71700000  0.63300000  0.01810000  1.0
  H  H44  1  0.82560000  0.51450000  0.01460000  1.0
  H  H45  1  0.89350000  0.56900000  0.07220000  1.0
  H  H46  1  0.91790000  0.55880000  0.92090000  1.0
  H  H47  1  0.96850000  0.79350000  0.86570000  1.0
  H  H48  1  0.93810000  0.69320000  0.83560000  1.0
  H  H49  1  0.04640000  0.70930000  0.87030000  1.0
  H  H50  1  0.98820000  0.82190000  0.99450000  1.0
  H  H51  1  0.06470000  0.73700000  0.00240000  1.0
  H  H52  1  0.96850000  0.74300000  0.05350000  1.0
  H  H53  1  0.57640000  0.53830000  0.07800000  1.0
  H  H54  1  0.65360000  0.45860000  0.10090000  1.0
  H  H55  1  0.54620000  0.46470000  0.13880000  1.0
  H  H56  1  0.55960000  0.40250000  0.92160000  1.0
  H  H57  1  0.63150000  0.47720000  0.95980000  1.0
  H  H58  1  0.75020000  0.37180000  0.97630000  1.0
  H  H59  1  0.68630000  0.30340000  0.92550000  1.0
  H  H60  1  0.70060000  0.30400000  0.07680000  1.0
  H  H61  1  0.53020000  0.21190000  0.14250000  1.0
  H  H62  1  0.45530000  0.29850000  0.14570000  1.0
  H  H63  1  0.57120000  0.31230000  0.16480000  1.0
  H  H64  1  0.47770000  0.17770000  0.02020000  1.0
  H  H65  1  0.49240000  0.25170000  0.95660000  1.0
  H  H66  1  0.40490000  0.26560000  0.01450000  1.0
  H  H67  1  0.14250000  0.46950000  0.69510000  1.0
  H  H68  1  0.11320000  0.52120000  0.76850000  1.0
  H  H69  1  0.15900000  0.41850000  0.77090000  1.0
  H  H70  1  0.27400000  0.77750000  0.15170000  1.0
  H  H71  1  0.18350000  0.80840000  0.10050000  1.0
  H  H72  1  0.27030000  0.88080000  0.12000000  1.0
  H  H73  1  0.29170000  0.80750000  0.93200000  1.0
  H  H74  1  0.21700000  0.86700000  0.98190000  1.0
  H  H75  1  0.32560000  0.98550000  0.98540000  1.0
  H  H76  1  0.39350000  0.93100000  0.92780000  1.0
  H  H77  1  0.41790000  0.94120000  0.07910000  1.0
  H  H78  1  0.46850000  0.70650000  0.13430000  1.0
  H  H79  1  0.43810000  0.80680000  0.16440000  1.0
  H  H80  1  0.54640000  0.79070000  0.12970000  1.0
  H  H81  1  0.48820000  0.67810000  0.00550000  1.0
  H  H82  1  0.56470000  0.76300000  0.99760000  1.0
  H  H83  1  0.46850000  0.75700000  0.94650000  1.0
  H  H84  1  0.07640000  0.96170000  0.92200000  1.0
  H  H85  1  0.15360000  0.04140000  0.89910000  1.0
  H  H86  1  0.04620000  0.03530000  0.86120000  1.0
  H  H87  1  0.05960000  0.09750000  0.07840000  1.0
  H  H88  1  0.13150000  0.02280000  0.04020000  1.0
  H  H89  1  0.25020000  0.12820000  0.02370000  1.0
  H  H90  1  0.18630000  0.19660000  0.07450000  1.0
  H  H91  1  0.20060000  0.19600000  0.92320000  1.0
  H  H92  1  0.03020000  0.28810000  0.85750000  1.0
  H  H93  1  0.95530000  0.20150000  0.85430000  1.0
  H  H94  1  0.07120000  0.18770000  0.83520000  1.0
  H  H95  1  0.97770000  0.32230000  0.97980000  1.0
  H  H96  1  0.99240000  0.24830000  0.04340000  1.0
  H  H97  1  0.90490000  0.23440000  0.98550000  1.0
  H  H98  1  0.64250000  0.03050000  0.30490000  1.0
  H  H99  1  0.61320000  0.97880000  0.23150000  1.0
  H  H100  1  0.65900000  0.08150000  0.22910000  1.0
  H  H101  1  0.22600000  0.22250000  0.65170000  1.0
  H  H102  1  0.31650000  0.19160000  0.60050000  1.0
  H  H103  1  0.22970000  0.11920000  0.62000000  1.0
  H  H104  1  0.20830000  0.19250000  0.43200000  1.0
  H  H105  1  0.28300000  0.13300000  0.48190000  1.0
  H  H106  1  0.17440000  0.01450000  0.48540000  1.0
  H  H107  1  0.10650000  0.06900000  0.42780000  1.0
  H  H108  1  0.08210000  0.05880000  0.57910000  1.0
  H  H109  1  0.03150000  0.29350000  0.63430000  1.0
  H  H110  1  0.06190000  0.19320000  0.66440000  1.0
  H  H111  1  0.95360000  0.20930000  0.62970000  1.0
  H  H112  1  0.01180000  0.32190000  0.50550000  1.0
  H  H113  1  0.93530000  0.23700000  0.49760000  1.0
  H  H114  1  0.03150000  0.24300000  0.44650000  1.0
  H  H115  1  0.42360000  0.03830000  0.42200000  1.0
  H  H116  1  0.34640000  0.95860000  0.39910000  1.0
  H  H117  1  0.45380000  0.96470000  0.36120000  1.0
  H  H118  1  0.44040000  0.90250000  0.57840000  1.0
  H  H119  1  0.36850000  0.97720000  0.54020000  1.0
  H  H120  1  0.24980000  0.87180000  0.52370000  1.0
  H  H121  1  0.31370000  0.80340000  0.57450000  1.0
  H  H122  1  0.29940000  0.80400000  0.42320000  1.0
  H  H123  1  0.46980000  0.71190000  0.35750000  1.0
  H  H124  1  0.54470000  0.79850000  0.35430000  1.0
  H  H125  1  0.42880000  0.81230000  0.33520000  1.0
  H  H126  1  0.52230000  0.67770000  0.47980000  1.0
  H  H127  1  0.50760000  0.75170000  0.54340000  1.0
  H  H128  1  0.59510000  0.76560000  0.48550000  1.0
  H  H129  1  0.85750000  0.96950000  0.80490000  1.0
  H  H130  1  0.88680000  0.02120000  0.73150000  1.0
  H  H131  1  0.84100000  0.91850000  0.72910000  1.0
  C  C132  1  0.70880000  0.17850000  0.47020000  1.0
  C  C133  1  0.45330000  0.44160000  0.48090000  1.0
  C  C134  1  0.74470000  0.31540000  0.39000000  1.0
  C  C135  1  0.68440000  0.28320000  0.45690000  1.0
  C  C136  1  0.71340000  0.34410000  0.52300000  1.0
  C  C137  1  0.63890000  0.42650000  0.52440000  1.0
  C  C138  1  0.55920000  0.40810000  0.46530000  1.0
  C  C139  1  0.56710000  0.30060000  0.44920000  1.0
  C  C140  1  0.52450000  0.27360000  0.37300000  1.0
  C  C141  1  0.50580000  0.24460000  0.50500000  1.0
  C  C142  1  0.07260000  0.55980000  0.52250000  1.0
  C  C143  1  0.81540000  0.82450000  0.52690000  1.0
  C  C144  1  0.91730000  0.52640000  0.59350000  1.0
  C  C145  1  0.96200000  0.59190000  0.53429000  1.0
  C  C146  1  0.89810000  0.58550000  0.46440000  1.0
  C  C147  1  0.81580000  0.65840000  0.46990000  1.0
  C  C148  1  0.84070000  0.71960000  0.53570000  1.0
  C  C149  1  0.95430000  0.69980000  0.55560000  1.0
  C  C150  1  0.97640000  0.72110000  0.63410000  1.0
  C  C151  1  0.02650000  0.75640000  0.50730000  1.0
  C  C152  1  0.23460000  0.48130000  0.25030000  1.0
  C  C153  1  0.33920000  0.52160000  0.24580000  1.0
  C  C154  1  0.79120000  0.82150000  0.97020000  1.0
  C  C155  1  0.04670000  0.55840000  0.98090000  1.0
  C  C156  1  0.75530000  0.68460000  0.89000000  1.0
  C  C157  1  0.81560000  0.71680000  0.95690000  1.0
  C  C158  1  0.78660000  0.65590000  0.02300000  1.0
  C  C159  1  0.86110000  0.57350000  0.02440000  1.0
  C  C160  1  0.94080000  0.59190000  0.96530000  1.0
  C  C161  1  0.93290000  0.69940000  0.94920000  1.0
  C  C162  1  0.97550000  0.72640000  0.87300000  1.0
  C  C163  1  0.99420000  0.75540000  0.00500000  1.0
  C  C164  1  0.42740000  0.44020000  0.02250000  1.0
  C  C165  1  0.68460000  0.17550000  0.02690000  1.0
  C  C166  1  0.58270000  0.47360000  0.09350000  1.0
  C  C167  1  0.53800000  0.40810000  0.03429000  1.0
  C  C168  1  0.60190000  0.41450000  0.96440000  1.0
  C  C169  1  0.68420000  0.34160000  0.96990000  1.0
  C  C170  1  0.65930000  0.28040000  0.03570000  1.0
  C  C171  1  0.54570000  0.30020000  0.05560000  1.0
  C  C172  1  0.52360000  0.27890000  0.13410000  1.0
  C  C173  1  0.47350000  0.24360000  0.00730000  1.0
  C  C174  1  0.26540000  0.51870000  0.75030000  1.0
  C  C175  1  0.16080000  0.47840000  0.74580000  1.0
  C  C176  1  0.29120000  0.67850000  0.02980000  1.0
  C  C177  1  0.54670000  0.94160000  0.01910000  1.0
  C  C178  1  0.25530000  0.81540000  0.11000000  1.0
  C  C179  1  0.31560000  0.78320000  0.04310000  1.0
  C  C180  1  0.28660000  0.84410000  0.97700000  1.0
  C  C181  1  0.36110000  0.92650000  0.97560000  1.0
  C  C182  1  0.44080000  0.90810000  0.03470000  1.0
  C  C183  1  0.43290000  0.80060000  0.05080000  1.0
  C  C184  1  0.47550000  0.77360000  0.12700000  1.0
  C  C185  1  0.49420000  0.74460000  0.99500000  1.0
  C  C186  1  0.92740000  0.05980000  0.97750000  1.0
  C  C187  1  0.18460000  0.32450000  0.97310000  1.0
  C  C188  1  0.08270000  0.02640000  0.90650000  1.0
  C  C189  1  0.03800000  0.09190000  0.96571000  1.0
  C  C190  1  0.10190000  0.08550000  0.03560000  1.0
  C  C191  1  0.18420000  0.15840000  0.03010000  1.0
  C  C192  1  0.15930000  0.21960000  0.96430000  1.0
  C  C193  1  0.04570000  0.19980000  0.94440000  1.0
  C  C194  1  0.02360000  0.22110000  0.86590000  1.0
  C  C195  1  0.97350000  0.25640000  0.99270000  1.0
  C  C196  1  0.76540000  0.98130000  0.24970000  1.0
  C  C197  1  0.66080000  0.02160000  0.25420000  1.0
  C  C198  1  0.20880000  0.32150000  0.52980000  1.0
  C  C199  1  0.95330000  0.05840000  0.51910000  1.0
  C  C200  1  0.24470000  0.18460000  0.61000000  1.0
  C  C201  1  0.18440000  0.21680000  0.54310000  1.0
  C  C202  1  0.21340000  0.15590000  0.47700000  1.0
  C  C203  1  0.13890000  0.07350000  0.47560000  1.0
  C  C204  1  0.05920000  0.09190000  0.53470000  1.0
  C  C205  1  0.06710000  0.19940000  0.55080000  1.0
  C  C206  1  0.02450000  0.22640000  0.62700000  1.0
  C  C207  1  0.00580000  0.25540000  0.49500000  1.0
  C  C208  1  0.57260000  0.94020000  0.47750000  1.0
  C  C209  1  0.31540000  0.67550000  0.47310000  1.0
  C  C210  1  0.41730000  0.97360000  0.40650000  1.0
  C  C211  1  0.46200000  0.90810000  0.46571000  1.0
  C  C212  1  0.39810000  0.91450000  0.53560000  1.0
  C  C213  1  0.31580000  0.84160000  0.53010000  1.0
  C  C214  1  0.34070000  0.78040000  0.46430000  1.0
  C  C215  1  0.45430000  0.80020000  0.44440000  1.0
  C  C216  1  0.47640000  0.77890000  0.36590000  1.0
  C  C217  1  0.52650000  0.74360000  0.49270000  1.0
  C  C218  1  0.73460000  0.01870000  0.74970000  1.0
  C  C219  1  0.83920000  0.97840000  0.75420000  1.0
  O  O220  1  0.72500000  0.12754000  0.41538000  1.0
  O  O221  1  0.71150000  0.14952000  0.53558000  1.0
  O  O222  1  0.42730000  0.45670000  0.54645000  1.0
  O  O223  1  0.39489000  0.45220000  0.42786000  1.0
  O  O224  1  0.09796000  0.53080000  0.46069000  1.0
  O  O225  1  0.13054000  0.56220000  0.57745000  1.0
  O  O226  1  0.78500000  0.86842000  0.58180000  1.0
  O  O227  1  0.82630000  0.85958000  0.46427000  1.0
  O  O228  1  0.19626000  0.46290000  0.31228000  1.0
  O  O229  1  0.18481000  0.46652000  0.19340000  1.0
  O  O230  1  0.77500000  0.87246000  0.91538000  1.0
  O  O231  1  0.78850000  0.85048000  0.03558000  1.0
  O  O232  1  0.07270000  0.54330000  0.04645000  1.0
  O  O233  1  0.10511000  0.54780000  0.92786000  1.0
  O  O234  1  0.40204000  0.46920000  0.96069000  1.0
  O  O235  1  0.36946000  0.43780000  0.07745000  1.0
  O  O236  1  0.71500000  0.13158000  0.08180000  1.0
  O  O237  1  0.67370000  0.14042000  0.96427000  1.0
  O  O238  1  0.30374000  0.53710000  0.81228000  1.0
  O  O239  1  0.31519000  0.53348000  0.69340000  1.0
  O  O240  1  0.27500000  0.62754000  0.08462000  1.0
  O  O241  1  0.28850000  0.64952000  0.96442000  1.0
  O  O242  1  0.57270000  0.95670000  0.95355000  1.0
  O  O243  1  0.60511000  0.95220000  0.07214000  1.0
  O  O244  1  0.90204000  0.03080000  0.03931000  1.0
  O  O245  1  0.86946000  0.06220000  0.92255000  1.0
  O  O246  1  0.21500000  0.36842000  0.91820000  1.0
  O  O247  1  0.17370000  0.35958000  0.03573000  1.0
  O  O248  1  0.80374000  0.96290000  0.18772000  1.0
  O  O249  1  0.81519000  0.96652000  0.30660000  1.0
  O  O250  1  0.22500000  0.37246000  0.58462000  1.0
  O  O251  1  0.21150000  0.35048000  0.46442000  1.0
  O  O252  1  0.92730000  0.04330000  0.45355000  1.0
  O  O253  1  0.89489000  0.04780000  0.57214000  1.0
  O  O254  1  0.59796000  0.96920000  0.53931000  1.0
  O  O255  1  0.63054000  0.93780000  0.42255000  1.0
  O  O256  1  0.28500000  0.63158000  0.41820000  1.0
  O  O257  1  0.32630000  0.64042000  0.53573000  1.0
  O  O258  1  0.69626000  0.03710000  0.68772000  1.0
  O  O259  1  0.68481000  0.03348000  0.80660000  1.0
