# generated using pymatgen
data_Cd2H6(C2N3)3
_symmetry_space_group_name_H-M   'P 1'
_cell_length_a   8.02220000
_cell_length_b   18.10990000
_cell_length_c   21.95400000
_cell_angle_alpha   90.00000000
_cell_angle_beta   90.00000000
_cell_angle_gamma   90.00000000
_symmetry_Int_Tables_number   1
_chemical_formula_structural   Cd2H6(C2N3)3
_chemical_formula_sum   'Cd16 H48 C48 N72'
_cell_volume   3189.50433813
_cell_formula_units_Z   8
loop_
 _symmetry_equiv_pos_site_id
 _symmetry_equiv_pos_as_xyz
  1  'x, y, z'
loop_
 _atom_site_type_symbol
 _atom_site_label
 _atom_site_symmetry_multiplicity
 _atom_site_fract_x
 _atom_site_fract_y
 _atom_site_fract_z
 _atom_site_occupancy
  Cd  Cd0  1  0.76819000  0.09132000  0.13978000  1.0
  Cd  Cd1  1  0.96011000  0.25271000  0.89004000  1.0
  Cd  Cd2  1  0.23181000  0.40868000  0.63978000  1.0
  Cd  Cd3  1  0.03989000  0.24729000  0.39004000  1.0
  Cd  Cd4  1  0.26819000  0.90868000  0.36022000  1.0
  Cd  Cd5  1  0.46011000  0.74729000  0.60996000  1.0
  Cd  Cd6  1  0.73181000  0.59132000  0.86022000  1.0
  Cd  Cd7  1  0.53989000  0.75271000  0.10996000  1.0
  Cd  Cd8  1  0.23181000  0.90868000  0.86022000  1.0
  Cd  Cd9  1  0.03989000  0.74729000  0.10996000  1.0
  Cd  Cd10  1  0.76819000  0.59132000  0.36022000  1.0
  Cd  Cd11  1  0.96011000  0.75271000  0.60996000  1.0
  Cd  Cd12  1  0.73181000  0.09132000  0.63978000  1.0
  Cd  Cd13  1  0.53989000  0.25271000  0.39004000  1.0
  Cd  Cd14  1  0.26819000  0.40868000  0.13978000  1.0
  Cd  Cd15  1  0.46011000  0.24729000  0.89004000  1.0
  H  H16  1  0.48270000  0.16360000  0.03660000  1.0
  H  H17  1  0.95760000  0.14610000  0.01550000  1.0
  H  H18  1  0.55760000  0.94230000  0.10610000  1.0
  H  H19  1  0.03180000  0.93940000  0.13290000  1.0
  H  H20  1  0.01640000  0.13900000  0.25700000  1.0
  H  H21  1  0.54780000  0.18230000  0.24400000  1.0
  H  H22  1  0.51730000  0.33640000  0.53660000  1.0
  H  H23  1  0.04240000  0.35390000  0.51550000  1.0
  H  H24  1  0.44240000  0.55770000  0.60610000  1.0
  H  H25  1  0.96820000  0.56060000  0.63290000  1.0
  H  H26  1  0.98360000  0.36100000  0.75700000  1.0
  H  H27  1  0.45220000  0.31770000  0.74400000  1.0
  H  H28  1  0.98270000  0.83640000  0.46340000  1.0
  H  H29  1  0.45760000  0.85390000  0.48450000  1.0
  H  H30  1  0.05760000  0.05770000  0.39390000  1.0
  H  H31  1  0.53180000  0.06060000  0.36710000  1.0
  H  H32  1  0.51640000  0.86100000  0.24300000  1.0
  H  H33  1  0.04780000  0.81770000  0.25600000  1.0
  H  H34  1  0.01730000  0.66360000  0.96340000  1.0
  H  H35  1  0.54240000  0.64610000  0.98450000  1.0
  H  H36  1  0.94240000  0.44230000  0.89390000  1.0
  H  H37  1  0.46820000  0.43940000  0.86710000  1.0
  H  H38  1  0.48360000  0.63900000  0.74300000  1.0
  H  H39  1  0.95220000  0.68230000  0.75600000  1.0
  H  H40  1  0.51730000  0.83640000  0.96340000  1.0
  H  H41  1  0.04240000  0.85390000  0.98450000  1.0
  H  H42  1  0.44240000  0.05770000  0.89390000  1.0
  H  H43  1  0.96820000  0.06060000  0.86710000  1.0
  H  H44  1  0.98360000  0.86100000  0.74300000  1.0
  H  H45  1  0.45220000  0.81770000  0.75600000  1.0
  H  H46  1  0.48270000  0.66360000  0.46340000  1.0
  H  H47  1  0.95760000  0.64610000  0.48450000  1.0
  H  H48  1  0.55760000  0.44230000  0.39390000  1.0
  H  H49  1  0.03180000  0.43940000  0.36710000  1.0
  H  H50  1  0.01640000  0.63900000  0.24300000  1.0
  H  H51  1  0.54780000  0.68230000  0.25600000  1.0
  H  H52  1  0.01730000  0.16360000  0.53660000  1.0
  H  H53  1  0.54240000  0.14610000  0.51550000  1.0
  H  H54  1  0.94240000  0.94230000  0.60610000  1.0
  H  H55  1  0.46820000  0.93940000  0.63290000  1.0
  H  H56  1  0.48360000  0.13900000  0.75700000  1.0
  H  H57  1  0.95220000  0.18230000  0.74400000  1.0
  H  H58  1  0.98270000  0.33640000  0.03660000  1.0
  H  H59  1  0.45760000  0.35390000  0.01550000  1.0
  H  H60  1  0.05760000  0.55770000  0.10610000  1.0
  H  H61  1  0.53180000  0.56060000  0.13290000  1.0
  H  H62  1  0.51640000  0.36100000  0.25700000  1.0
  H  H63  1  0.04780000  0.31770000  0.24400000  1.0
  C  C64  1  0.58980000  0.16670000  0.02050000  1.0
  C  C65  1  0.84590000  0.15750000  0.00910000  1.0
  C  C66  1  0.66710000  0.92640000  0.11090000  1.0
  C  C67  1  0.92270000  0.92440000  0.12570000  1.0
  C  C68  1  0.90940000  0.15600000  0.26550000  1.0
  C  C69  1  0.65660000  0.17910000  0.25840000  1.0
  C  C70  1  0.41020000  0.33333333  0.52050000  1.0
  C  C71  1  0.15410000  0.34250000  0.50910000  1.0
  C  C72  1  0.33290000  0.57360000  0.61090000  1.0
  C  C73  1  0.07730000  0.57560000  0.62570000  1.0
  C  C74  1  0.09060000  0.34400000  0.76550000  1.0
  C  C75  1  0.34340000  0.32090000  0.75840000  1.0
  C  C76  1  0.08980000  0.83330000  0.47950000  1.0
  C  C77  1  0.34590000  0.84250000  0.49090000  1.0
  C  C78  1  0.16710000  0.07360000  0.38910000  1.0
  C  C79  1  0.42270000  0.07560000  0.37430000  1.0
  C  C80  1  0.40940000  0.84400000  0.23450000  1.0
  C  C81  1  0.15660000  0.82090000  0.24160000  1.0
  C  C82  1  0.91020000  0.66666667  0.97950000  1.0
  C  C83  1  0.65410000  0.65750000  0.99090000  1.0
  C  C84  1  0.83290000  0.42640000  0.88910000  1.0
  C  C85  1  0.57730000  0.42440000  0.87430000  1.0
  C  C86  1  0.59060000  0.65600000  0.73450000  1.0
  C  C87  1  0.84340000  0.67910000  0.74160000  1.0
  C  C88  1  0.41020000  0.83330000  0.97950000  1.0
  C  C89  1  0.15410000  0.84250000  0.99090000  1.0
  C  C90  1  0.33290000  0.07360000  0.88910000  1.0
  C  C91  1  0.07730000  0.07560000  0.87430000  1.0
  C  C92  1  0.09060000  0.84400000  0.73450000  1.0
  C  C93  1  0.34340000  0.82090000  0.74160000  1.0
  C  C94  1  0.58980000  0.66666667  0.47950000  1.0
  C  C95  1  0.84590000  0.65750000  0.49090000  1.0
  C  C96  1  0.66710000  0.42640000  0.38910000  1.0
  C  C97  1  0.92270000  0.42440000  0.37430000  1.0
  C  C98  1  0.90940000  0.65600000  0.23450000  1.0
  C  C99  1  0.65660000  0.67910000  0.24160000  1.0
  C  C100  1  0.91020000  0.16670000  0.52050000  1.0
  C  C101  1  0.65410000  0.15750000  0.50910000  1.0
  C  C102  1  0.83290000  0.92640000  0.61090000  1.0
  C  C103  1  0.57730000  0.92440000  0.62570000  1.0
  C  C104  1  0.59060000  0.15600000  0.76550000  1.0
  C  C105  1  0.84340000  0.17910000  0.75840000  1.0
  C  C106  1  0.08980000  0.33333333  0.02050000  1.0
  C  C107  1  0.34590000  0.34250000  0.00910000  1.0
  C  C108  1  0.16710000  0.57360000  0.11090000  1.0
  C  C109  1  0.42270000  0.57560000  0.12570000  1.0
  C  C110  1  0.40940000  0.34400000  0.26550000  1.0
  C  C111  1  0.15660000  0.32090000  0.25840000  1.0
  N  N112  1  0.72720000  0.13940000  0.04880000  1.0
  N  N113  1  0.79510000  0.19190000  0.96140000  1.0
  N  N114  1  0.62520000  0.19810000  0.96780000  1.0
  N  N115  1  0.77840000  0.14650000  0.22800000  1.0
  N  N116  1  0.70410000  0.20640000  0.31060000  1.0
  N  N117  1  0.86940000  0.19180000  0.31550000  1.0
  N  N118  1  0.78870000  0.97140000  0.12310000  1.0
  N  N119  1  0.71100000  0.85680000  0.10580000  1.0
  N  N120  1  0.87720000  0.85570000  0.11660000  1.0
  N  N121  1  0.27280000  0.36060000  0.54880000  1.0
  N  N122  1  0.20490000  0.30810000  0.46140000  1.0
  N  N123  1  0.37480000  0.30190000  0.46780000  1.0
  N  N124  1  0.22160000  0.35350000  0.72800000  1.0
  N  N125  1  0.29590000  0.29360000  0.81060000  1.0
  N  N126  1  0.13060000  0.30820000  0.81550000  1.0
  N  N127  1  0.21130000  0.52860000  0.62310000  1.0
  N  N128  1  0.28900000  0.64320000  0.60580000  1.0
  N  N129  1  0.12280000  0.64430000  0.61660000  1.0
  N  N130  1  0.22720000  0.86060000  0.45120000  1.0
  N  N131  1  0.29510000  0.80810000  0.53860000  1.0
  N  N132  1  0.12520000  0.80190000  0.53220000  1.0
  N  N133  1  0.27840000  0.85350000  0.27200000  1.0
  N  N134  1  0.20410000  0.79360000  0.18940000  1.0
  N  N135  1  0.36940000  0.80820000  0.18450000  1.0
  N  N136  1  0.28870000  0.02860000  0.37690000  1.0
  N  N137  1  0.21100000  0.14320000  0.39420000  1.0
  N  N138  1  0.37720000  0.14430000  0.38340000  1.0
  N  N139  1  0.77280000  0.63940000  0.95120000  1.0
  N  N140  1  0.70490000  0.69190000  0.03860000  1.0
  N  N141  1  0.87480000  0.69810000  0.03220000  1.0
  N  N142  1  0.72160000  0.64650000  0.77200000  1.0
  N  N143  1  0.79590000  0.70640000  0.68940000  1.0
  N  N144  1  0.63060000  0.69180000  0.68450000  1.0
  N  N145  1  0.71130000  0.47140000  0.87690000  1.0
  N  N146  1  0.78900000  0.35680000  0.89420000  1.0
  N  N147  1  0.62280000  0.35570000  0.88340000  1.0
  N  N148  1  0.27280000  0.86060000  0.95120000  1.0
  N  N149  1  0.20490000  0.80810000  0.03860000  1.0
  N  N150  1  0.37480000  0.80190000  0.03220000  1.0
  N  N151  1  0.22160000  0.85350000  0.77200000  1.0
  N  N152  1  0.29590000  0.79360000  0.68940000  1.0
  N  N153  1  0.13060000  0.80820000  0.68450000  1.0
  N  N154  1  0.21130000  0.02860000  0.87690000  1.0
  N  N155  1  0.28900000  0.14320000  0.89420000  1.0
  N  N156  1  0.12280000  0.14430000  0.88340000  1.0
  N  N157  1  0.72720000  0.63940000  0.45120000  1.0
  N  N158  1  0.79510000  0.69190000  0.53860000  1.0
  N  N159  1  0.62520000  0.69810000  0.53220000  1.0
  N  N160  1  0.77840000  0.64650000  0.27200000  1.0
  N  N161  1  0.70410000  0.70640000  0.18940000  1.0
  N  N162  1  0.86940000  0.69180000  0.18450000  1.0
  N  N163  1  0.78870000  0.47140000  0.37690000  1.0
  N  N164  1  0.71100000  0.35680000  0.39420000  1.0
  N  N165  1  0.87720000  0.35570000  0.38340000  1.0
  N  N166  1  0.77280000  0.13940000  0.54880000  1.0
  N  N167  1  0.70490000  0.19190000  0.46140000  1.0
  N  N168  1  0.87480000  0.19810000  0.46780000  1.0
  N  N169  1  0.72160000  0.14650000  0.72800000  1.0
  N  N170  1  0.79590000  0.20640000  0.81060000  1.0
  N  N171  1  0.63060000  0.19180000  0.81550000  1.0
  N  N172  1  0.71130000  0.97140000  0.62310000  1.0
  N  N173  1  0.78900000  0.85680000  0.60580000  1.0
  N  N174  1  0.62280000  0.85570000  0.61660000  1.0
  N  N175  1  0.22720000  0.36060000  0.04880000  1.0
  N  N176  1  0.29510000  0.30810000  0.96140000  1.0
  N  N177  1  0.12520000  0.30190000  0.96780000  1.0
  N  N178  1  0.27840000  0.35350000  0.22800000  1.0
  N  N179  1  0.20410000  0.29360000  0.31060000  1.0
  N  N180  1  0.36940000  0.30820000  0.31550000  1.0
  N  N181  1  0.28870000  0.52860000  0.12310000  1.0
  N  N182  1  0.21100000  0.64320000  0.10580000  1.0
  N  N183  1  0.37720000  0.64430000  0.11660000  1.0
