# generated using pymatgen
data_Sm2H5C14(NO4)3
_symmetry_space_group_name_H-M   'P 1'
_cell_length_a   9.59000000
_cell_length_b   22.62100000
_cell_length_c   10.12900000
_cell_angle_alpha   90.00000000
_cell_angle_beta   101.61000000
_cell_angle_gamma   90.00000000
_symmetry_Int_Tables_number   1
_chemical_formula_structural   Sm2H5C14(NO4)3
_chemical_formula_sum   'Sm8 H20 C56 N12 O48'
_cell_volume   2152.38132581
_cell_formula_units_Z   4
loop_
 _symmetry_equiv_pos_site_id
 _symmetry_equiv_pos_as_xyz
  1  'x, y, z'
loop_
 _atom_site_type_symbol
 _atom_site_label
 _atom_site_symmetry_multiplicity
 _atom_site_fract_x
 _atom_site_fract_y
 _atom_site_fract_z
 _atom_site_occupancy
  Sm  Sm0  1  0.24947000  0.27703000  0.04694000  1.0
  Sm  Sm1  1  0.72018000  0.43443000  0.85643000  1.0
  Sm  Sm2  1  0.75053000  0.77703000  0.45306000  1.0
  Sm  Sm3  1  0.27982000  0.93443000  0.64357000  1.0
  Sm  Sm4  1  0.75053000  0.72297000  0.95306000  1.0
  Sm  Sm5  1  0.27982000  0.56557000  0.14357000  1.0
  Sm  Sm6  1  0.24947000  0.22297000  0.54694000  1.0
  Sm  Sm7  1  0.72018000  0.06557000  0.35643000  1.0
  H  H8  1  0.52324000  0.42261000  0.31665000  1.0
  H  H9  1  0.72438000  0.49833000  0.31318000  1.0
  H  H10  1  0.88890000  0.57780000  0.34778000  1.0
  H  H11  1  0.97429000  0.61156000  0.56760000  1.0
  H  H12  1  0.90464000  0.56503000  0.74644000  1.0
  H  H13  1  0.47676000  0.92261000  0.18335000  1.0
  H  H14  1  0.27562000  0.99833000  0.18682000  1.0
  H  H15  1  0.11110000  0.07780000  0.15222000  1.0
  H  H16  1  0.02571000  0.11156000  0.93240000  1.0
  H  H17  1  0.09536000  0.06503000  0.75356000  1.0
  H  H18  1  0.47676000  0.57739000  0.68335000  1.0
  H  H19  1  0.27562000  0.50167000  0.68682000  1.0
  H  H20  1  0.11110000  0.42220000  0.65222000  1.0
  H  H21  1  0.02571000  0.38844000  0.43240000  1.0
  H  H22  1  0.09536000  0.43497000  0.25356000  1.0
  H  H23  1  0.52324000  0.07739000  0.81665000  1.0
  H  H24  1  0.72438000  0.00167000  0.81318000  1.0
  H  H25  1  0.88890000  0.92220000  0.84778000  1.0
  H  H26  1  0.97429000  0.88844000  0.06760000  1.0
  H  H27  1  0.90464000  0.93497000  0.24644000  1.0
  C  C28  1  0.45730000  0.36966000  0.44680000  1.0
  C  C29  1  0.49960000  0.37089000  0.58620000  1.0
  C  C30  1  0.61870000  0.43971000  0.50800000  1.0
  C  C31  1  0.72130000  0.48841000  0.51430000  1.0
  C  C32  1  0.76160000  0.51294000  0.40110000  1.0
  C  C33  1  0.85860000  0.55970000  0.42190000  1.0
  C  C34  1  0.90980000  0.57925000  0.55160000  1.0
  C  C35  1  0.86670000  0.55152000  0.65770000  1.0
  C  C36  1  0.36060000  0.33164000  0.34840000  1.0
  C  C37  1  0.46250000  0.33891000  0.70310000  1.0
  C  C38  1  0.51980000  0.47870000  0.06100000  1.0
  C  C39  1  0.04460000  0.47983000  0.96230000  1.0
  C  C40  1  0.95230000  0.34923000  0.02760000  1.0
  C  C41  1  0.93760000  0.32376000  0.88260000  1.0
  C  C42  1  0.54270000  0.86966000  0.05320000  1.0
  C  C43  1  0.50040000  0.87089000  0.91380000  1.0
  C  C44  1  0.38130000  0.93971000  0.99200000  1.0
  C  C45  1  0.27870000  0.98841000  0.98570000  1.0
  C  C46  1  0.23840000  0.01294000  0.09890000  1.0
  C  C47  1  0.14140000  0.05970000  0.07810000  1.0
  C  C48  1  0.09020000  0.07925000  0.94840000  1.0
  C  C49  1  0.13330000  0.05152000  0.84230000  1.0
  C  C50  1  0.63940000  0.83164000  0.15160000  1.0
  C  C51  1  0.53750000  0.83891000  0.79690000  1.0
  C  C52  1  0.48020000  0.97870000  0.43900000  1.0
  C  C53  1  0.95540000  0.97983000  0.53770000  1.0
  C  C54  1  0.04770000  0.84923000  0.47240000  1.0
  C  C55  1  0.06240000  0.82376000  0.61740000  1.0
  C  C56  1  0.54270000  0.63034000  0.55320000  1.0
  C  C57  1  0.50040000  0.62911000  0.41380000  1.0
  C  C58  1  0.38130000  0.56029000  0.49200000  1.0
  C  C59  1  0.27870000  0.51159000  0.48570000  1.0
  C  C60  1  0.23840000  0.48706000  0.59890000  1.0
  C  C61  1  0.14140000  0.44030000  0.57810000  1.0
  C  C62  1  0.09020000  0.42075000  0.44840000  1.0
  C  C63  1  0.13330000  0.44848000  0.34230000  1.0
  C  C64  1  0.63940000  0.66836000  0.65160000  1.0
  C  C65  1  0.53750000  0.66109000  0.29690000  1.0
  C  C66  1  0.48020000  0.52130000  0.93900000  1.0
  C  C67  1  0.95540000  0.52017000  0.03770000  1.0
  C  C68  1  0.04770000  0.65077000  0.97240000  1.0
  C  C69  1  0.06240000  0.67624000  0.11740000  1.0
  C  C70  1  0.45730000  0.13034000  0.94680000  1.0
  C  C71  1  0.49960000  0.12911000  0.08620000  1.0
  C  C72  1  0.61870000  0.06029000  0.00800000  1.0
  C  C73  1  0.72130000  0.01159000  0.01430000  1.0
  C  C74  1  0.76160000  0.98706000  0.90110000  1.0
  C  C75  1  0.85860000  0.94030000  0.92190000  1.0
  C  C76  1  0.90980000  0.92075000  0.05160000  1.0
  C  C77  1  0.86670000  0.94848000  0.15770000  1.0
  C  C78  1  0.36060000  0.16836000  0.84840000  1.0
  C  C79  1  0.46250000  0.16109000  0.20310000  1.0
  C  C80  1  0.51980000  0.02130000  0.56100000  1.0
  C  C81  1  0.04460000  0.02017000  0.46230000  1.0
  C  C82  1  0.95230000  0.15077000  0.52760000  1.0
  C  C83  1  0.93760000  0.17624000  0.38260000  1.0
  N  N84  1  0.59890000  0.41469000  0.62070000  1.0
  N  N85  1  0.53390000  0.41381000  0.40080000  1.0
  N  N86  1  0.77420000  0.50658000  0.64220000  1.0
  N  N87  1  0.40110000  0.91469000  0.87930000  1.0
  N  N88  1  0.46610000  0.91381000  0.09920000  1.0
  N  N89  1  0.22580000  0.00658000  0.85780000  1.0
  N  N90  1  0.40110000  0.58531000  0.37930000  1.0
  N  N91  1  0.46610000  0.58619000  0.59920000  1.0
  N  N92  1  0.22580000  0.49342000  0.35780000  1.0
  N  N93  1  0.59890000  0.08531000  0.12070000  1.0
  N  N94  1  0.53390000  0.08619000  0.90080000  1.0
  N  N95  1  0.77420000  0.99342000  0.14220000  1.0
  O  O96  1  0.06500000  0.33834000  0.10940000  1.0
  O  O97  1  0.03330000  0.28809000  0.86570000  1.0
  O  O98  1  0.83350000  0.34115000  0.79550000  1.0
  O  O99  1  0.85050000  0.38014000  0.04940000  1.0
  O  O100  1  0.52360000  0.35958000  0.81700000  1.0
  O  O101  1  0.37800000  0.29633000  0.68960000  1.0
  O  O102  1  0.27890000  0.29513000  0.38880000  1.0
  O  O103  1  0.36820000  0.33901000  0.22740000  1.0
  O  O104  1  0.59860000  0.43630000  0.04960000  1.0
  O  O105  1  0.46820000  0.49065000  0.16370000  1.0
  O  O106  1  0.97860000  0.44933000  0.86820000  1.0
  O  O107  1  0.17740000  0.48099000  0.00400000  1.0
  O  O108  1  0.93500000  0.83834000  0.39060000  1.0
  O  O109  1  0.96670000  0.78809000  0.63430000  1.0
  O  O110  1  0.16650000  0.84115000  0.70450000  1.0
  O  O111  1  0.14950000  0.88014000  0.45060000  1.0
  O  O112  1  0.47640000  0.85958000  0.68300000  1.0
  O  O113  1  0.62200000  0.79633000  0.81040000  1.0
  O  O114  1  0.72110000  0.79513000  0.11120000  1.0
  O  O115  1  0.63180000  0.83901000  0.27260000  1.0
  O  O116  1  0.40140000  0.93630000  0.45040000  1.0
  O  O117  1  0.53180000  0.99065000  0.33630000  1.0
  O  O118  1  0.02140000  0.94933000  0.63180000  1.0
  O  O119  1  0.82260000  0.98099000  0.49600000  1.0
  O  O120  1  0.93500000  0.66166000  0.89060000  1.0
  O  O121  1  0.96670000  0.71191000  0.13430000  1.0
  O  O122  1  0.16650000  0.65885000  0.20450000  1.0
  O  O123  1  0.14950000  0.61986000  0.95060000  1.0
  O  O124  1  0.47640000  0.64042000  0.18300000  1.0
  O  O125  1  0.62200000  0.70367000  0.31040000  1.0
  O  O126  1  0.72110000  0.70487000  0.61120000  1.0
  O  O127  1  0.63180000  0.66099000  0.77260000  1.0
  O  O128  1  0.40140000  0.56370000  0.95040000  1.0
  O  O129  1  0.53180000  0.50935000  0.83630000  1.0
  O  O130  1  0.02140000  0.55067000  0.13180000  1.0
  O  O131  1  0.82260000  0.51901000  0.99600000  1.0
  O  O132  1  0.06500000  0.16166000  0.60940000  1.0
  O  O133  1  0.03330000  0.21191000  0.36570000  1.0
  O  O134  1  0.83350000  0.15885000  0.29550000  1.0
  O  O135  1  0.85050000  0.11986000  0.54940000  1.0
  O  O136  1  0.52360000  0.14042000  0.31700000  1.0
  O  O137  1  0.37800000  0.20367000  0.18960000  1.0
  O  O138  1  0.27890000  0.20487000  0.88880000  1.0
  O  O139  1  0.36820000  0.16099000  0.72740000  1.0
  O  O140  1  0.59860000  0.06370000  0.54960000  1.0
  O  O141  1  0.46820000  0.00935000  0.66370000  1.0
  O  O142  1  0.97860000  0.05067000  0.36820000  1.0
  O  O143  1  0.17740000  0.01901000  0.50400000  1.0
