# generated using pymatgen
data_Er2H5C14(NO4)3
_symmetry_space_group_name_H-M   'P 1'
_cell_length_a   9.40560000
_cell_length_b   22.31520000
_cell_length_c   10.08200000
_cell_angle_alpha   90.00000000
_cell_angle_beta   102.96000000
_cell_angle_gamma   90.00000000
_symmetry_Int_Tables_number   1
_chemical_formula_structural   Er2H5C14(NO4)3
_chemical_formula_sum   'Er8 H20 C56 N12 O48'
_cell_volume   2062.18584373
_cell_formula_units_Z   4
loop_
 _symmetry_equiv_pos_site_id
 _symmetry_equiv_pos_as_xyz
  1  'x, y, z'
loop_
 _atom_site_type_symbol
 _atom_site_label
 _atom_site_symmetry_multiplicity
 _atom_site_fract_x
 _atom_site_fract_y
 _atom_site_fract_z
 _atom_site_occupancy
  Er  Er0  1  0.24787000  0.27613000  0.05256000  1.0
  Er  Er1  1  0.71757000  0.43395000  0.86311000  1.0
  Er  Er2  1  0.75213000  0.77613000  0.44744000  1.0
  Er  Er3  1  0.28243000  0.93395000  0.63689000  1.0
  Er  Er4  1  0.75213000  0.72387000  0.94744000  1.0
  Er  Er5  1  0.28243000  0.56605000  0.13689000  1.0
  Er  Er6  1  0.24787000  0.22387000  0.55256000  1.0
  Er  Er7  1  0.71757000  0.06605000  0.36311000  1.0
  H  H8  1  0.51867000  0.42217000  0.32273000  1.0
  H  H9  1  0.72912000  0.49606000  0.32148000  1.0
  H  H10  1  0.89376000  0.57735000  0.35497000  1.0
  H  H11  1  0.97928000  0.61238000  0.57601000  1.0
  H  H12  1  0.91080000  0.56747000  0.75239000  1.0
  H  H13  1  0.48133000  0.92217000  0.17727000  1.0
  H  H14  1  0.27088000  0.99606000  0.17852000  1.0
  H  H15  1  0.10624000  0.07735000  0.14503000  1.0
  H  H16  1  0.02072000  0.11238000  0.92399000  1.0
  H  H17  1  0.08920000  0.06747000  0.74761000  1.0
  H  H18  1  0.48133000  0.57783000  0.67727000  1.0
  H  H19  1  0.27088000  0.50394000  0.67852000  1.0
  H  H20  1  0.10624000  0.42265000  0.64503000  1.0
  H  H21  1  0.02072000  0.38762000  0.42399000  1.0
  H  H22  1  0.08920000  0.43253000  0.24761000  1.0
  H  H23  1  0.51867000  0.07783000  0.82273000  1.0
  H  H24  1  0.72912000  0.00394000  0.82148000  1.0
  H  H25  1  0.89376000  0.92265000  0.85497000  1.0
  H  H26  1  0.97928000  0.88762000  0.07601000  1.0
  H  H27  1  0.91080000  0.93253000  0.25239000  1.0
  C  C28  1  0.45370000  0.36820000  0.45340000  1.0
  C  C29  1  0.49910000  0.37050000  0.59440000  1.0
  C  C30  1  0.61870000  0.44000000  0.51610000  1.0
  C  C31  1  0.72280000  0.48920000  0.52110000  1.0
  C  C32  1  0.76510000  0.51200000  0.40770000  1.0
  C  C33  1  0.86360000  0.55980000  0.42770000  1.0
  C  C34  1  0.91490000  0.58020000  0.55960000  1.0
  C  C35  1  0.87170000  0.55350000  0.66490000  1.0
  C  C36  1  0.35580000  0.32880000  0.35470000  1.0
  C  C37  1  0.46330000  0.33850000  0.71040000  1.0
  C  C38  1  0.52060000  0.47930000  0.06340000  1.0
  C  C39  1  0.04440000  0.47960000  0.96130000  1.0
  C  C40  1  0.95180000  0.34820000  0.03110000  1.0
  C  C41  1  0.93330000  0.32290000  0.88570000  1.0
  C  C42  1  0.54630000  0.86820000  0.04660000  1.0
  C  C43  1  0.50090000  0.87050000  0.90560000  1.0
  C  C44  1  0.38130000  0.94000000  0.98390000  1.0
  C  C45  1  0.27720000  0.98920000  0.97890000  1.0
  C  C46  1  0.23490000  0.01200000  0.09230000  1.0
  C  C47  1  0.13640000  0.05980000  0.07230000  1.0
  C  C48  1  0.08510000  0.08020000  0.94040000  1.0
  C  C49  1  0.12830000  0.05350000  0.83510000  1.0
  C  C50  1  0.64420000  0.82880000  0.14530000  1.0
  C  C51  1  0.53670000  0.83850000  0.78960000  1.0
  C  C52  1  0.47940000  0.97930000  0.43660000  1.0
  C  C53  1  0.95560000  0.97960000  0.53870000  1.0
  C  C54  1  0.04820000  0.84820000  0.46890000  1.0
  C  C55  1  0.06670000  0.82290000  0.61430000  1.0
  C  C56  1  0.54630000  0.63180000  0.54660000  1.0
  C  C57  1  0.50090000  0.62950000  0.40560000  1.0
  C  C58  1  0.38130000  0.56000000  0.48390000  1.0
  C  C59  1  0.27720000  0.51080000  0.47890000  1.0
  C  C60  1  0.23490000  0.48800000  0.59230000  1.0
  C  C61  1  0.13640000  0.44020000  0.57230000  1.0
  C  C62  1  0.08510000  0.41980000  0.44040000  1.0
  C  C63  1  0.12830000  0.44650000  0.33510000  1.0
  C  C64  1  0.64420000  0.67120000  0.64530000  1.0
  C  C65  1  0.53670000  0.66150000  0.28960000  1.0
  C  C66  1  0.47940000  0.52070000  0.93660000  1.0
  C  C67  1  0.95560000  0.52040000  0.03870000  1.0
  C  C68  1  0.04820000  0.65180000  0.96890000  1.0
  C  C69  1  0.06670000  0.67710000  0.11430000  1.0
  C  C70  1  0.45370000  0.13180000  0.95340000  1.0
  C  C71  1  0.49910000  0.12950000  0.09440000  1.0
  C  C72  1  0.61870000  0.06000000  0.01610000  1.0
  C  C73  1  0.72280000  0.01080000  0.02110000  1.0
  C  C74  1  0.76510000  0.98800000  0.90770000  1.0
  C  C75  1  0.86360000  0.94020000  0.92770000  1.0
  C  C76  1  0.91490000  0.91980000  0.05960000  1.0
  C  C77  1  0.87170000  0.94650000  0.16490000  1.0
  C  C78  1  0.35580000  0.17120000  0.85470000  1.0
  C  C79  1  0.46330000  0.16150000  0.21040000  1.0
  C  C80  1  0.52060000  0.02070000  0.56340000  1.0
  C  C81  1  0.04440000  0.02040000  0.46130000  1.0
  C  C82  1  0.95180000  0.15180000  0.53110000  1.0
  C  C83  1  0.93330000  0.17710000  0.38570000  1.0
  N  N84  1  0.59980000  0.41516000  0.62970000  1.0
  N  N85  1  0.53290000  0.41262000  0.40720000  1.0
  N  N86  1  0.77660000  0.50850000  0.65050000  1.0
  N  N87  1  0.40020000  0.91516000  0.87030000  1.0
  N  N88  1  0.46710000  0.91262000  0.09280000  1.0
  N  N89  1  0.22340000  0.00850000  0.84950000  1.0
  N  N90  1  0.40020000  0.58484000  0.37030000  1.0
  N  N91  1  0.46710000  0.58738000  0.59280000  1.0
  N  N92  1  0.22340000  0.49150000  0.34950000  1.0
  N  N93  1  0.59980000  0.08484000  0.12970000  1.0
  N  N94  1  0.53290000  0.08738000  0.90720000  1.0
  N  N95  1  0.77660000  0.99150000  0.15050000  1.0
  O  O96  1  0.06640000  0.33652000  0.11430000  1.0
  O  O97  1  0.02940000  0.28574000  0.87080000  1.0
  O  O98  1  0.82730000  0.34105000  0.79840000  1.0
  O  O99  1  0.84990000  0.38093000  0.05220000  1.0
  O  O100  1  0.52330000  0.36042000  0.82680000  1.0
  O  O101  1  0.60190000  0.43630000  0.05390000  1.0
  O  O102  1  0.38010000  0.29478000  0.69770000  1.0
  O  O103  1  0.27310000  0.29258000  0.39660000  1.0
  O  O104  1  0.36460000  0.33489000  0.23360000  1.0
  O  O105  1  0.46890000  0.49216000  0.16300000  1.0
  O  O106  1  0.97430000  0.44671000  0.87080000  1.0
  O  O107  1  0.18090000  0.48236000  0.00100000  1.0
  O  O108  1  0.93360000  0.83652000  0.38570000  1.0
  O  O109  1  0.97060000  0.78574000  0.62920000  1.0
  O  O110  1  0.17270000  0.84105000  0.70160000  1.0
  O  O111  1  0.15010000  0.88093000  0.44780000  1.0
  O  O112  1  0.47670000  0.86042000  0.67320000  1.0
  O  O113  1  0.39810000  0.93630000  0.44610000  1.0
  O  O114  1  0.61990000  0.79478000  0.80230000  1.0
  O  O115  1  0.72690000  0.79258000  0.10340000  1.0
  O  O116  1  0.63540000  0.83489000  0.26640000  1.0
  O  O117  1  0.53110000  0.99216000  0.33700000  1.0
  O  O118  1  0.02570000  0.94671000  0.62920000  1.0
  O  O119  1  0.81910000  0.98236000  0.49900000  1.0
  O  O120  1  0.93360000  0.66348000  0.88570000  1.0
  O  O121  1  0.97060000  0.71426000  0.12920000  1.0
  O  O122  1  0.17270000  0.65895000  0.20160000  1.0
  O  O123  1  0.15010000  0.61907000  0.94780000  1.0
  O  O124  1  0.47670000  0.63958000  0.17320000  1.0
  O  O125  1  0.39810000  0.56370000  0.94610000  1.0
  O  O126  1  0.61990000  0.70522000  0.30230000  1.0
  O  O127  1  0.72690000  0.70742000  0.60340000  1.0
  O  O128  1  0.63540000  0.66511000  0.76640000  1.0
  O  O129  1  0.53110000  0.50784000  0.83700000  1.0
  O  O130  1  0.02570000  0.55329000  0.12920000  1.0
  O  O131  1  0.81910000  0.51764000  0.99900000  1.0
  O  O132  1  0.06640000  0.16348000  0.61430000  1.0
  O  O133  1  0.02940000  0.21426000  0.37080000  1.0
  O  O134  1  0.82730000  0.15895000  0.29840000  1.0
  O  O135  1  0.84990000  0.11907000  0.55220000  1.0
  O  O136  1  0.52330000  0.13958000  0.32680000  1.0
  O  O137  1  0.60190000  0.06370000  0.55390000  1.0
  O  O138  1  0.38010000  0.20522000  0.19770000  1.0
  O  O139  1  0.27310000  0.20742000  0.89660000  1.0
  O  O140  1  0.36460000  0.16511000  0.73360000  1.0
  O  O141  1  0.46890000  0.00784000  0.66300000  1.0
  O  O142  1  0.97430000  0.05329000  0.37080000  1.0
  O  O143  1  0.18090000  0.01764000  0.50100000  1.0
