# generated using pymatgen
data_Tb2H5C14(NO4)3
_symmetry_space_group_name_H-M   'P 1'
_cell_length_a   9.49160000
_cell_length_b   22.41310000
_cell_length_c   10.10840000
_cell_angle_alpha   90.00000000
_cell_angle_beta   102.50000000
_cell_angle_gamma   90.00000000
_symmetry_Int_Tables_number   1
_chemical_formula_structural   Tb2H5C14(NO4)3
_chemical_formula_sum   'Tb8 H20 C56 N12 O48'
_cell_volume   2099.44880421
_cell_formula_units_Z   4
loop_
 _symmetry_equiv_pos_site_id
 _symmetry_equiv_pos_as_xyz
  1  'x, y, z'
loop_
 _atom_site_type_symbol
 _atom_site_label
 _atom_site_symmetry_multiplicity
 _atom_site_fract_x
 _atom_site_fract_y
 _atom_site_fract_z
 _atom_site_occupancy
  Tb  Tb0  1  0.71840000  0.43434000  0.85995000  1.0
  Tb  Tb1  1  0.24869000  0.27656000  0.04949000  1.0
  Tb  Tb2  1  0.28160000  0.93434000  0.64005000  1.0
  Tb  Tb3  1  0.75131000  0.77656000  0.45051000  1.0
  Tb  Tb4  1  0.28160000  0.56566000  0.14005000  1.0
  Tb  Tb5  1  0.75131000  0.72344000  0.95051000  1.0
  Tb  Tb6  1  0.71840000  0.06566000  0.35995000  1.0
  Tb  Tb7  1  0.24869000  0.22344000  0.54949000  1.0
  H  H8  1  0.52723000  0.42256000  0.32118000  1.0
  H  H9  1  0.72747000  0.49715000  0.31908000  1.0
  H  H10  1  0.89227000  0.57687000  0.35401000  1.0
  H  H11  1  0.97602000  0.61198000  0.57268000  1.0
  H  H12  1  0.90732000  0.56601000  0.74895000  1.0
  H  H13  1  0.47277000  0.92256000  0.17882000  1.0
  H  H14  1  0.27253000  0.99715000  0.18092000  1.0
  H  H15  1  0.10773000  0.07687000  0.14599000  1.0
  H  H16  1  0.02398000  0.11198000  0.92732000  1.0
  H  H17  1  0.09268000  0.06601000  0.75105000  1.0
  H  H18  1  0.47277000  0.57744000  0.67882000  1.0
  H  H19  1  0.27253000  0.50285000  0.68092000  1.0
  H  H20  1  0.10773000  0.42313000  0.64599000  1.0
  H  H21  1  0.02398000  0.38802000  0.42732000  1.0
  H  H22  1  0.09268000  0.43399000  0.25105000  1.0
  H  H23  1  0.52723000  0.07744000  0.82118000  1.0
  H  H24  1  0.72747000  0.00285000  0.81908000  1.0
  H  H25  1  0.89227000  0.92313000  0.85401000  1.0
  H  H26  1  0.97602000  0.88802000  0.07268000  1.0
  H  H27  1  0.90732000  0.93399000  0.24895000  1.0
  C  C28  1  0.45500000  0.36906000  0.45070000  1.0
  C  C29  1  0.49900000  0.37105000  0.59010000  1.0
  C  C30  1  0.61840000  0.43977000  0.51190000  1.0
  C  C31  1  0.72150000  0.48878000  0.51740000  1.0
  C  C32  1  0.76350000  0.51230000  0.40550000  1.0
  C  C33  1  0.86170000  0.55950000  0.42650000  1.0
  C  C34  1  0.91250000  0.57990000  0.55650000  1.0
  C  C35  1  0.86900000  0.55250000  0.66150000  1.0
  C  C36  1  0.35720000  0.33021000  0.35200000  1.0
  C  C37  1  0.46200000  0.33872000  0.70680000  1.0
  C  C38  1  0.52020000  0.47895000  0.06170000  1.0
  C  C39  1  0.04420000  0.47999000  0.96200000  1.0
  C  C40  1  0.95260000  0.34885000  0.02920000  1.0
  C  C41  1  0.93510000  0.32319000  0.88440000  1.0
  C  C42  1  0.54500000  0.86906000  0.04930000  1.0
  C  C43  1  0.50100000  0.87105000  0.90990000  1.0
  C  C44  1  0.38160000  0.93977000  0.98810000  1.0
  C  C45  1  0.27850000  0.98878000  0.98260000  1.0
  C  C46  1  0.23650000  0.01230000  0.09450000  1.0
  C  C47  1  0.13830000  0.05950000  0.07350000  1.0
  C  C48  1  0.08750000  0.07990000  0.94350000  1.0
  C  C49  1  0.13100000  0.05250000  0.83850000  1.0
  C  C50  1  0.64280000  0.83021000  0.14800000  1.0
  C  C51  1  0.53800000  0.83872000  0.79320000  1.0
  C  C52  1  0.47980000  0.97895000  0.43830000  1.0
  C  C53  1  0.95580000  0.97999000  0.53800000  1.0
  C  C54  1  0.04740000  0.84885000  0.47080000  1.0
  C  C55  1  0.06490000  0.82319000  0.61560000  1.0
  C  C56  1  0.54500000  0.63094000  0.54930000  1.0
  C  C57  1  0.50100000  0.62895000  0.40990000  1.0
  C  C58  1  0.38160000  0.56023000  0.48810000  1.0
  C  C59  1  0.27850000  0.51122000  0.48260000  1.0
  C  C60  1  0.23650000  0.48770000  0.59450000  1.0
  C  C61  1  0.13830000  0.44050000  0.57350000  1.0
  C  C62  1  0.08750000  0.42010000  0.44350000  1.0
  C  C63  1  0.13100000  0.44750000  0.33850000  1.0
  C  C64  1  0.64280000  0.66979000  0.64800000  1.0
  C  C65  1  0.53800000  0.66128000  0.29320000  1.0
  C  C66  1  0.47980000  0.52105000  0.93830000  1.0
  C  C67  1  0.95580000  0.52001000  0.03800000  1.0
  C  C68  1  0.04740000  0.65115000  0.97080000  1.0
  C  C69  1  0.06490000  0.67681000  0.11560000  1.0
  C  C70  1  0.45500000  0.13094000  0.95070000  1.0
  C  C71  1  0.49900000  0.12895000  0.09010000  1.0
  C  C72  1  0.61840000  0.06023000  0.01190000  1.0
  C  C73  1  0.72150000  0.01122000  0.01740000  1.0
  C  C74  1  0.76350000  0.98770000  0.90550000  1.0
  C  C75  1  0.86170000  0.94050000  0.92650000  1.0
  C  C76  1  0.91250000  0.92010000  0.05650000  1.0
  C  C77  1  0.86900000  0.94750000  0.16150000  1.0
  C  C78  1  0.35720000  0.16979000  0.85200000  1.0
  C  C79  1  0.46200000  0.16128000  0.20680000  1.0
  C  C80  1  0.52020000  0.02105000  0.56170000  1.0
  C  C81  1  0.04420000  0.02001000  0.46200000  1.0
  C  C82  1  0.95260000  0.15115000  0.52920000  1.0
  C  C83  1  0.93510000  0.17681000  0.38440000  1.0
  N  N84  1  0.59950000  0.41505000  0.62610000  1.0
  N  N85  1  0.53270000  0.41333000  0.40470000  1.0
  N  N86  1  0.77500000  0.50784000  0.64610000  1.0
  N  N87  1  0.40050000  0.91505000  0.87390000  1.0
  N  N88  1  0.46730000  0.91333000  0.09530000  1.0
  N  N89  1  0.22500000  0.00784000  0.85390000  1.0
  N  N90  1  0.40050000  0.58495000  0.37390000  1.0
  N  N91  1  0.46730000  0.58667000  0.59530000  1.0
  N  N92  1  0.22500000  0.49216000  0.35390000  1.0
  N  N93  1  0.59950000  0.08495000  0.12610000  1.0
  N  N94  1  0.53270000  0.08667000  0.90470000  1.0
  N  N95  1  0.77500000  0.99216000  0.14610000  1.0
  O  O96  1  0.06640000  0.33749000  0.11130000  1.0
  O  O97  1  0.03120000  0.28688000  0.86830000  1.0
  O  O98  1  0.82950000  0.34106000  0.79660000  1.0
  O  O99  1  0.85070000  0.38060000  0.05040000  1.0
  O  O100  1  0.52300000  0.36048000  0.82180000  1.0
  O  O101  1  0.37940000  0.29552000  0.69350000  1.0
  O  O102  1  0.27560000  0.29407000  0.39280000  1.0
  O  O103  1  0.36630000  0.33668000  0.23100000  1.0
  O  O104  1  0.60170000  0.43646000  0.05210000  1.0
  O  O105  1  0.46900000  0.49137000  0.16340000  1.0
  O  O106  1  0.97600000  0.44801000  0.86970000  1.0
  O  O107  1  0.17850000  0.48189000  0.00200000  1.0
  O  O108  1  0.93360000  0.83749000  0.38870000  1.0
  O  O109  1  0.96880000  0.78688000  0.63170000  1.0
  O  O110  1  0.17050000  0.84106000  0.70340000  1.0
  O  O111  1  0.14930000  0.88060000  0.44960000  1.0
  O  O112  1  0.47700000  0.86048000  0.67820000  1.0
  O  O113  1  0.62060000  0.79552000  0.80650000  1.0
  O  O114  1  0.72440000  0.79407000  0.10720000  1.0
  O  O115  1  0.63370000  0.83668000  0.26900000  1.0
  O  O116  1  0.39830000  0.93646000  0.44790000  1.0
  O  O117  1  0.53100000  0.99137000  0.33660000  1.0
  O  O118  1  0.02400000  0.94801000  0.63030000  1.0
  O  O119  1  0.82150000  0.98189000  0.49800000  1.0
  O  O120  1  0.93360000  0.66251000  0.88870000  1.0
  O  O121  1  0.96880000  0.71312000  0.13170000  1.0
  O  O122  1  0.17050000  0.65894000  0.20340000  1.0
  O  O123  1  0.14930000  0.61940000  0.94960000  1.0
  O  O124  1  0.47700000  0.63952000  0.17820000  1.0
  O  O125  1  0.62060000  0.70448000  0.30650000  1.0
  O  O126  1  0.72440000  0.70593000  0.60720000  1.0
  O  O127  1  0.63370000  0.66332000  0.76900000  1.0
  O  O128  1  0.39830000  0.56354000  0.94790000  1.0
  O  O129  1  0.53100000  0.50863000  0.83660000  1.0
  O  O130  1  0.02400000  0.55199000  0.13030000  1.0
  O  O131  1  0.82150000  0.51811000  0.99800000  1.0
  O  O132  1  0.06640000  0.16251000  0.61130000  1.0
  O  O133  1  0.03120000  0.21312000  0.36830000  1.0
  O  O134  1  0.82950000  0.15894000  0.29660000  1.0
  O  O135  1  0.85070000  0.11940000  0.55040000  1.0
  O  O136  1  0.52300000  0.13952000  0.32180000  1.0
  O  O137  1  0.37940000  0.20448000  0.19350000  1.0
  O  O138  1  0.27560000  0.20593000  0.89280000  1.0
  O  O139  1  0.36630000  0.16332000  0.73100000  1.0
  O  O140  1  0.60170000  0.06354000  0.55210000  1.0
  O  O141  1  0.46900000  0.00863000  0.66340000  1.0
  O  O142  1  0.97600000  0.05199000  0.36970000  1.0
  O  O143  1  0.17850000  0.01811000  0.50200000  1.0
