# generated using pymatgen
data_Gd2H5C14(NO4)3
_symmetry_space_group_name_H-M   'P 1'
_cell_length_a   9.52610000
_cell_length_b   22.47290000
_cell_length_c   10.12160000
_cell_angle_alpha   90.00000000
_cell_angle_beta   102.26300000
_cell_angle_gamma   90.00000000
_symmetry_Int_Tables_number   1
_chemical_formula_structural   Gd2H5C14(NO4)3
_chemical_formula_sum   'Gd8 H20 C56 N12 O48'
_cell_volume   2117.38241483
_cell_formula_units_Z   4
loop_
 _symmetry_equiv_pos_site_id
 _symmetry_equiv_pos_as_xyz
  1  'x, y, z'
loop_
 _atom_site_type_symbol
 _atom_site_label
 _atom_site_symmetry_multiplicity
 _atom_site_fract_x
 _atom_site_fract_y
 _atom_site_fract_z
 _atom_site_occupancy
  Gd  Gd0  1  0.71895000  0.43454000  0.85846000  1.0
  Gd  Gd1  1  0.24923000  0.27679000  0.04843000  1.0
  Gd  Gd2  1  0.28105000  0.93454000  0.64154000  1.0
  Gd  Gd3  1  0.75077000  0.77679000  0.45157000  1.0
  Gd  Gd4  1  0.28105000  0.56546000  0.14154000  1.0
  Gd  Gd5  1  0.75077000  0.72321000  0.95157000  1.0
  Gd  Gd6  1  0.71895000  0.06546000  0.35846000  1.0
  Gd  Gd7  1  0.24923000  0.22321000  0.54843000  1.0
  H  H8  1  0.49162000  0.41047000  0.31994000  1.0
  H  H9  1  0.72376000  0.49845000  0.31851000  1.0
  H  H10  1  0.89043000  0.57724000  0.35241000  1.0
  H  H11  1  0.97565000  0.61108000  0.57093000  1.0
  H  H12  1  0.90559000  0.56613000  0.74800000  1.0
  H  H13  1  0.50838000  0.91047000  0.18006000  1.0
  H  H14  1  0.27624000  0.99845000  0.18149000  1.0
  H  H15  1  0.10957000  0.07724000  0.14759000  1.0
  H  H16  1  0.02435000  0.11108000  0.92907000  1.0
  H  H17  1  0.09441000  0.06613000  0.75200000  1.0
  H  H18  1  0.50838000  0.58953000  0.68006000  1.0
  H  H19  1  0.27624000  0.50155000  0.68149000  1.0
  H  H20  1  0.10957000  0.42276000  0.64759000  1.0
  H  H21  1  0.02435000  0.38892000  0.42907000  1.0
  H  H22  1  0.09441000  0.43387000  0.25200000  1.0
  H  H23  1  0.49162000  0.08953000  0.81994000  1.0
  H  H24  1  0.72376000  0.00155000  0.81851000  1.0
  H  H25  1  0.89043000  0.92276000  0.85241000  1.0
  H  H26  1  0.97565000  0.88892000  0.07093000  1.0
  H  H27  1  0.90559000  0.93387000  0.24800000  1.0
  C  C28  1  0.45530000  0.36923000  0.44920000  1.0
  C  C29  1  0.49880000  0.37095000  0.58840000  1.0
  C  C30  1  0.61740000  0.43997000  0.51090000  1.0
  C  C31  1  0.72190000  0.48852000  0.51690000  1.0
  C  C32  1  0.76160000  0.51290000  0.40480000  1.0
  C  C33  1  0.86030000  0.55980000  0.42490000  1.0
  C  C34  1  0.91140000  0.57940000  0.55490000  1.0
  C  C35  1  0.86810000  0.55240000  0.66100000  1.0
  C  C36  1  0.35850000  0.33058000  0.35060000  1.0
  C  C37  1  0.46280000  0.33865000  0.70540000  1.0
  C  C38  1  0.51980000  0.47909000  0.06180000  1.0
  C  C39  1  0.04460000  0.47944000  0.96230000  1.0
  C  C40  1  0.95230000  0.34939000  0.02730000  1.0
  C  C41  1  0.93590000  0.32359000  0.88390000  1.0
  C  C42  1  0.54470000  0.86923000  0.05080000  1.0
  C  C43  1  0.50120000  0.87095000  0.91160000  1.0
  C  C44  1  0.38260000  0.93997000  0.98910000  1.0
  C  C45  1  0.27810000  0.98852000  0.98310000  1.0
  C  C46  1  0.23840000  0.01290000  0.09520000  1.0
  C  C47  1  0.13970000  0.05980000  0.07510000  1.0
  C  C48  1  0.08860000  0.07940000  0.94510000  1.0
  C  C49  1  0.13190000  0.05240000  0.83900000  1.0
  C  C50  1  0.64150000  0.83058000  0.14940000  1.0
  C  C51  1  0.53720000  0.83865000  0.79460000  1.0
  C  C52  1  0.48020000  0.97909000  0.43820000  1.0
  C  C53  1  0.95540000  0.97944000  0.53770000  1.0
  C  C54  1  0.04770000  0.84939000  0.47270000  1.0
  C  C55  1  0.06410000  0.82359000  0.61610000  1.0
  C  C56  1  0.54470000  0.63077000  0.55080000  1.0
  C  C57  1  0.50120000  0.62905000  0.41160000  1.0
  C  C58  1  0.38260000  0.56003000  0.48910000  1.0
  C  C59  1  0.27810000  0.51148000  0.48310000  1.0
  C  C60  1  0.23840000  0.48710000  0.59520000  1.0
  C  C61  1  0.13970000  0.44020000  0.57510000  1.0
  C  C62  1  0.08860000  0.42060000  0.44510000  1.0
  C  C63  1  0.13190000  0.44760000  0.33900000  1.0
  C  C64  1  0.64150000  0.66942000  0.64940000  1.0
  C  C65  1  0.53720000  0.66135000  0.29460000  1.0
  C  C66  1  0.48020000  0.52091000  0.93820000  1.0
  C  C67  1  0.95540000  0.52056000  0.03770000  1.0
  C  C68  1  0.04770000  0.65061000  0.97270000  1.0
  C  C69  1  0.06410000  0.67641000  0.11610000  1.0
  C  C70  1  0.45530000  0.13077000  0.94920000  1.0
  C  C71  1  0.49880000  0.12905000  0.08840000  1.0
  C  C72  1  0.61740000  0.06003000  0.01090000  1.0
  C  C73  1  0.72190000  0.01148000  0.01690000  1.0
  C  C74  1  0.76160000  0.98710000  0.90480000  1.0
  C  C75  1  0.86030000  0.94020000  0.92490000  1.0
  C  C76  1  0.91140000  0.92060000  0.05490000  1.0
  C  C77  1  0.86810000  0.94760000  0.16100000  1.0
  C  C78  1  0.35850000  0.16942000  0.85060000  1.0
  C  C79  1  0.46280000  0.16135000  0.20540000  1.0
  C  C80  1  0.51980000  0.02091000  0.56180000  1.0
  C  C81  1  0.04460000  0.02056000  0.46230000  1.0
  C  C82  1  0.95230000  0.15061000  0.52730000  1.0
  C  C83  1  0.93590000  0.17641000  0.38390000  1.0
  N  N84  1  0.59910000  0.41480000  0.62390000  1.0
  N  N85  1  0.53340000  0.41373000  0.40390000  1.0
  N  N86  1  0.77450000  0.50730000  0.64540000  1.0
  N  N87  1  0.40090000  0.91480000  0.87610000  1.0
  N  N88  1  0.46660000  0.91373000  0.09610000  1.0
  N  N89  1  0.22550000  0.00730000  0.85460000  1.0
  N  N90  1  0.40090000  0.58520000  0.37610000  1.0
  N  N91  1  0.46660000  0.58627000  0.59610000  1.0
  N  N92  1  0.22550000  0.49270000  0.35460000  1.0
  N  N93  1  0.59910000  0.08520000  0.12390000  1.0
  N  N94  1  0.53340000  0.08627000  0.90390000  1.0
  N  N95  1  0.77450000  0.99270000  0.14540000  1.0
  O  O96  1  0.06560000  0.33787000  0.11020000  1.0
  O  O97  1  0.03170000  0.28740000  0.86720000  1.0
  O  O98  1  0.83130000  0.34137000  0.79570000  1.0
  O  O99  1  0.84940000  0.38033000  0.04940000  1.0
  O  O100  1  0.52290000  0.36023000  0.81970000  1.0
  O  O101  1  0.37970000  0.29574000  0.69200000  1.0
  O  O102  1  0.27700000  0.29424000  0.39100000  1.0
  O  O103  1  0.36750000  0.33745000  0.22980000  1.0
  O  O104  1  0.60090000  0.43641000  0.05050000  1.0
  O  O105  1  0.46880000  0.49088000  0.16320000  1.0
  O  O106  1  0.97680000  0.44861000  0.86880000  1.0
  O  O107  1  0.17820000  0.48116000  0.00320000  1.0
  O  O108  1  0.93440000  0.83787000  0.38980000  1.0
  O  O109  1  0.96830000  0.78740000  0.63280000  1.0
  O  O110  1  0.16870000  0.84137000  0.70430000  1.0
  O  O111  1  0.15060000  0.88033000  0.45060000  1.0
  O  O112  1  0.47710000  0.86023000  0.68030000  1.0
  O  O113  1  0.62030000  0.79574000  0.80800000  1.0
  O  O114  1  0.72300000  0.79424000  0.10900000  1.0
  O  O115  1  0.63250000  0.83745000  0.27020000  1.0
  O  O116  1  0.39910000  0.93641000  0.44950000  1.0
  O  O117  1  0.53120000  0.99088000  0.33680000  1.0
  O  O118  1  0.02320000  0.94861000  0.63120000  1.0
  O  O119  1  0.82180000  0.98116000  0.49680000  1.0
  O  O120  1  0.93440000  0.66213000  0.88980000  1.0
  O  O121  1  0.96830000  0.71260000  0.13280000  1.0
  O  O122  1  0.16870000  0.65863000  0.20430000  1.0
  O  O123  1  0.15060000  0.61967000  0.95060000  1.0
  O  O124  1  0.47710000  0.63977000  0.18030000  1.0
  O  O125  1  0.62030000  0.70426000  0.30800000  1.0
  O  O126  1  0.72300000  0.70576000  0.60900000  1.0
  O  O127  1  0.63250000  0.66255000  0.77020000  1.0
  O  O128  1  0.39910000  0.56359000  0.94950000  1.0
  O  O129  1  0.53120000  0.50912000  0.83680000  1.0
  O  O130  1  0.02320000  0.55139000  0.13120000  1.0
  O  O131  1  0.82180000  0.51884000  0.99680000  1.0
  O  O132  1  0.06560000  0.16213000  0.61020000  1.0
  O  O133  1  0.03170000  0.21260000  0.36720000  1.0
  O  O134  1  0.83130000  0.15863000  0.29570000  1.0
  O  O135  1  0.84940000  0.11967000  0.54940000  1.0
  O  O136  1  0.52290000  0.13977000  0.31970000  1.0
  O  O137  1  0.37970000  0.20426000  0.19200000  1.0
  O  O138  1  0.27700000  0.20576000  0.89100000  1.0
  O  O139  1  0.36750000  0.16255000  0.72980000  1.0
  O  O140  1  0.60090000  0.06359000  0.55050000  1.0
  O  O141  1  0.46880000  0.00912000  0.66320000  1.0
  O  O142  1  0.97680000  0.05139000  0.36880000  1.0
  O  O143  1  0.17820000  0.01884000  0.50320000  1.0
