# generated using pymatgen
data_SmH9C18(NO2)3
_symmetry_space_group_name_H-M   'P 1'
_cell_length_a   15.58640000
_cell_length_b   25.47500000
_cell_length_c   17.03010000
_cell_angle_alpha   98.42800000
_cell_angle_beta   90.00000000
_cell_angle_gamma   90.00000000
_symmetry_Int_Tables_number   1
_chemical_formula_structural   SmH9C18(NO2)3
_chemical_formula_sum   'Sm8 H72 C144 N24 O48'
_cell_volume   6689.00742923
_cell_formula_units_Z   8
loop_
 _symmetry_equiv_pos_site_id
 _symmetry_equiv_pos_as_xyz
  1  'x, y, z'
loop_
 _atom_site_type_symbol
 _atom_site_label
 _atom_site_symmetry_multiplicity
 _atom_site_fract_x
 _atom_site_fract_y
 _atom_site_fract_z
 _atom_site_occupancy
  Sm  Sm0  1  0.29514000  0.25036000  0.96244000  1.0
  Sm  Sm1  1  0.17593000  0.24829000  0.18493000  1.0
  Sm  Sm2  1  0.79514000  0.74964000  0.53756000  1.0
  Sm  Sm3  1  0.67593000  0.75171000  0.31507000  1.0
  Sm  Sm4  1  0.70486000  0.74964000  0.03756000  1.0
  Sm  Sm5  1  0.82407000  0.75171000  0.81507000  1.0
  Sm  Sm6  1  0.20486000  0.25036000  0.46244000  1.0
  Sm  Sm7  1  0.32407000  0.24829000  0.68493000  1.0
  H  H8  1  0.99570000  0.38490000  0.11330000  1.0
  H  H9  1  0.93980000  0.46340000  0.09330000  1.0
  H  H10  1  0.16280000  0.38760000  0.93330000  1.0
  H  H11  1  0.34850000  0.12630000  0.23750000  1.0
  H  H12  1  0.42390000  0.05080000  0.26120000  1.0
  H  H13  1  0.47940000  0.12620000  0.03180000  1.0
  H  H14  1  0.50150000  0.99760000  0.28050000  1.0
  H  H15  1  0.55730000  0.91450000  0.29620000  1.0
  H  H16  1  0.64230000  0.89480000  0.06890000  1.0
  H  H17  1  0.13250000  0.08600000  0.87680000  1.0
  H  H18  1  0.05400000  0.00890000  0.88300000  1.0
  H  H19  1  0.07500000  0.12970000  0.10480000  1.0
  H  H20  1  0.35200000  0.40410000  0.27830000  1.0
  H  H21  1  0.44100000  0.47820000  0.28050000  1.0
  H  H22  1  0.40760000  0.36290000  0.04550000  1.0
  H  H23  1  0.48870000  0.54680000  0.27330000  1.0
  H  H24  1  0.55330000  0.62580000  0.26640000  1.0
  H  H25  1  0.63680000  0.57420000  0.04880000  1.0
  H  H26  1  0.49570000  0.61510000  0.38670000  1.0
  H  H27  1  0.43980000  0.53660000  0.40670000  1.0
  H  H28  1  0.66280000  0.61240000  0.56670000  1.0
  H  H29  1  0.84850000  0.87370000  0.26250000  1.0
  H  H30  1  0.92390000  0.94920000  0.23880000  1.0
  H  H31  1  0.97940000  0.87380000  0.46820000  1.0
  H  H32  1  0.00150000  0.00240000  0.21950000  1.0
  H  H33  1  0.05730000  0.08550000  0.20380000  1.0
  H  H34  1  0.14230000  0.10520000  0.43110000  1.0
  H  H35  1  0.63250000  0.91400000  0.62320000  1.0
  H  H36  1  0.55400000  0.99110000  0.61700000  1.0
  H  H37  1  0.57500000  0.87030000  0.39520000  1.0
  H  H38  1  0.85200000  0.59590000  0.22170000  1.0
  H  H39  1  0.94100000  0.52180000  0.21950000  1.0
  H  H40  1  0.90760000  0.63710000  0.45450000  1.0
  H  H41  1  0.98870000  0.45320000  0.22670000  1.0
  H  H42  1  0.05330000  0.37420000  0.23360000  1.0
  H  H43  1  0.13680000  0.42580000  0.45120000  1.0
  H  H44  1  0.00430000  0.61510000  0.88670000  1.0
  H  H45  1  0.06020000  0.53660000  0.90670000  1.0
  H  H46  1  0.83720000  0.61240000  0.06670000  1.0
  H  H47  1  0.65150000  0.87370000  0.76250000  1.0
  H  H48  1  0.57610000  0.94920000  0.73880000  1.0
  H  H49  1  0.52060000  0.87380000  0.96820000  1.0
  H  H50  1  0.49850000  0.00240000  0.71950000  1.0
  H  H51  1  0.44270000  0.08550000  0.70380000  1.0
  H  H52  1  0.35770000  0.10520000  0.93110000  1.0
  H  H53  1  0.86750000  0.91400000  0.12320000  1.0
  H  H54  1  0.94600000  0.99110000  0.11700000  1.0
  H  H55  1  0.92500000  0.87030000  0.89520000  1.0
  H  H56  1  0.64800000  0.59590000  0.72170000  1.0
  H  H57  1  0.55900000  0.52180000  0.71950000  1.0
  H  H58  1  0.59240000  0.63710000  0.95450000  1.0
  H  H59  1  0.51130000  0.45320000  0.72670000  1.0
  H  H60  1  0.44670000  0.37420000  0.73360000  1.0
  H  H61  1  0.36320000  0.42580000  0.95120000  1.0
  H  H62  1  0.50430000  0.38490000  0.61330000  1.0
  H  H63  1  0.56020000  0.46340000  0.59330000  1.0
  H  H64  1  0.33720000  0.38760000  0.43330000  1.0
  H  H65  1  0.15150000  0.12630000  0.73750000  1.0
  H  H66  1  0.07610000  0.05080000  0.76120000  1.0
  H  H67  1  0.02060000  0.12620000  0.53180000  1.0
  H  H68  1  0.99850000  0.99760000  0.78050000  1.0
  H  H69  1  0.94270000  0.91450000  0.79620000  1.0
  H  H70  1  0.85770000  0.89480000  0.56890000  1.0
  H  H71  1  0.36750000  0.08600000  0.37680000  1.0
  H  H72  1  0.44600000  0.00890000  0.38300000  1.0
  H  H73  1  0.42500000  0.12970000  0.60480000  1.0
  H  H74  1  0.14800000  0.40410000  0.77830000  1.0
  H  H75  1  0.05900000  0.47820000  0.78050000  1.0
  H  H76  1  0.09240000  0.36290000  0.54550000  1.0
  H  H77  1  0.01130000  0.54680000  0.77330000  1.0
  H  H78  1  0.94670000  0.62580000  0.76640000  1.0
  H  H79  1  0.86320000  0.57420000  0.54880000  1.0
  C  C80  1  0.12470000  0.32540000  0.04270000  1.0
  C  C81  1  0.08640000  0.37780000  0.02790000  1.0
  C  C82  1  0.01930000  0.40220000  0.07250000  1.0
  C  C83  1  0.98620000  0.44860000  0.06120000  1.0
  C  C84  1  0.01780000  0.47440000  0.00490000  1.0
  C  C85  1  0.11800000  0.40340000  0.96630000  1.0
  C  C86  1  0.35290000  0.17910000  0.11530000  1.0
  C  C87  1  0.40680000  0.13340000  0.13240000  1.0
  C  C88  1  0.39040000  0.11100000  0.20060000  1.0
  C  C89  1  0.43520000  0.06610000  0.21470000  1.0
  C  C90  1  0.49640000  0.04360000  0.16060000  1.0
  C  C91  1  0.46810000  0.11090000  0.07840000  1.0
  C  C92  1  0.63280000  0.84220000  0.19420000  1.0
  C  C93  1  0.53880000  0.99550000  0.16540000  1.0
  C  C94  1  0.53010000  0.97670000  0.23750000  1.0
  C  C95  1  0.56320000  0.92740000  0.24690000  1.0
  C  C96  1  0.60510000  0.89680000  0.18400000  1.0
  C  C97  1  0.61370000  0.91560000  0.11180000  1.0
  C  C98  1  0.16670000  0.16530000  0.99450000  1.0
  C  C99  1  0.11520000  0.11540000  0.99270000  1.0
  C  C100  1  0.10700000  0.07970000  0.92530000  1.0
  C  C101  1  0.06000000  0.03410000  0.92950000  1.0
  C  C102  1  0.02500000  0.02450000  0.99540000  1.0
  C  C103  1  0.07300000  0.10410000  0.05820000  1.0
  C  C104  1  0.31250000  0.32930000  0.15790000  1.0
  C  C105  1  0.37050000  0.37570000  0.16150000  1.0
  C  C106  1  0.38100000  0.41060000  0.23130000  1.0
  C  C107  1  0.43220000  0.45470000  0.23250000  1.0
  C  C108  1  0.47020000  0.46410000  0.16420000  1.0
  C  C109  1  0.41400000  0.38640000  0.09400000  1.0
  C  C110  1  0.52080000  0.51340000  0.16340000  1.0
  C  C111  1  0.51790000  0.55230000  0.22620000  1.0
  C  C112  1  0.55600000  0.59860000  0.22180000  1.0
  C  C113  1  0.59890000  0.60840000  0.15600000  1.0
  C  C114  1  0.60500000  0.56840000  0.09430000  1.0
  C  C115  1  0.63530000  0.66200000  0.15030000  1.0
  C  C116  1  0.62470000  0.67460000  0.45730000  1.0
  C  C117  1  0.58640000  0.62220000  0.47210000  1.0
  C  C118  1  0.51930000  0.59780000  0.42750000  1.0
  C  C119  1  0.48620000  0.55140000  0.43880000  1.0
  C  C120  1  0.51780000  0.52560000  0.49510000  1.0
  C  C121  1  0.61800000  0.59660000  0.53370000  1.0
  C  C122  1  0.85290000  0.82090000  0.38470000  1.0
  C  C123  1  0.90680000  0.86660000  0.36760000  1.0
  C  C124  1  0.89040000  0.88900000  0.29940000  1.0
  C  C125  1  0.93520000  0.93390000  0.28530000  1.0
  C  C126  1  0.99640000  0.95640000  0.33940000  1.0
  C  C127  1  0.96810000  0.88910000  0.42160000  1.0
  C  C128  1  0.13280000  0.15780000  0.30580000  1.0
  C  C129  1  0.03880000  0.00450000  0.33460000  1.0
  C  C130  1  0.03010000  0.02330000  0.26250000  1.0
  C  C131  1  0.06320000  0.07260000  0.25310000  1.0
  C  C132  1  0.10510000  0.10320000  0.31600000  1.0
  C  C133  1  0.11370000  0.08440000  0.38820000  1.0
  C  C134  1  0.66666667  0.83470000  0.50550000  1.0
  C  C135  1  0.61520000  0.88460000  0.50730000  1.0
  C  C136  1  0.60700000  0.92030000  0.57470000  1.0
  C  C137  1  0.56000000  0.96590000  0.57050000  1.0
  C  C138  1  0.52500000  0.97550000  0.50460000  1.0
  C  C139  1  0.57300000  0.89590000  0.44180000  1.0
  C  C140  1  0.81250000  0.67070000  0.34210000  1.0
  C  C141  1  0.87050000  0.62430000  0.33850000  1.0
  C  C142  1  0.88100000  0.58940000  0.26870000  1.0
  C  C143  1  0.93220000  0.54530000  0.26750000  1.0
  C  C144  1  0.97020000  0.53590000  0.33580000  1.0
  C  C145  1  0.91400000  0.61360000  0.40600000  1.0
  C  C146  1  0.02080000  0.48660000  0.33660000  1.0
  C  C147  1  0.01790000  0.44770000  0.27380000  1.0
  C  C148  1  0.05600000  0.40140000  0.27820000  1.0
  C  C149  1  0.09890000  0.39160000  0.34400000  1.0
  C  C150  1  0.10500000  0.43160000  0.40570000  1.0
  C  C151  1  0.13530000  0.33800000  0.34970000  1.0
  C  C152  1  0.87530000  0.67460000  0.95730000  1.0
  C  C153  1  0.91360000  0.62220000  0.97210000  1.0
  C  C154  1  0.98070000  0.59780000  0.92750000  1.0
  C  C155  1  0.01380000  0.55140000  0.93880000  1.0
  C  C156  1  0.98220000  0.52560000  0.99510000  1.0
  C  C157  1  0.88200000  0.59660000  0.03370000  1.0
  C  C158  1  0.64710000  0.82090000  0.88470000  1.0
  C  C159  1  0.59320000  0.86660000  0.86760000  1.0
  C  C160  1  0.60960000  0.88900000  0.79940000  1.0
  C  C161  1  0.56480000  0.93390000  0.78530000  1.0
  C  C162  1  0.50360000  0.95640000  0.83940000  1.0
  C  C163  1  0.53190000  0.88910000  0.92160000  1.0
  C  C164  1  0.36720000  0.15780000  0.80580000  1.0
  C  C165  1  0.46120000  0.00450000  0.83460000  1.0
  C  C166  1  0.46990000  0.02330000  0.76250000  1.0
  C  C167  1  0.43680000  0.07260000  0.75310000  1.0
  C  C168  1  0.39490000  0.10320000  0.81600000  1.0
  C  C169  1  0.38630000  0.08440000  0.88820000  1.0
  C  C170  1  0.83330000  0.83470000  0.00550000  1.0
  C  C171  1  0.88480000  0.88460000  0.00730000  1.0
  C  C172  1  0.89300000  0.92030000  0.07470000  1.0
  C  C173  1  0.94000000  0.96590000  0.07050000  1.0
  C  C174  1  0.97500000  0.97550000  0.00460000  1.0
  C  C175  1  0.92700000  0.89590000  0.94180000  1.0
  C  C176  1  0.68750000  0.67070000  0.84210000  1.0
  C  C177  1  0.62950000  0.62430000  0.83850000  1.0
  C  C178  1  0.61900000  0.58940000  0.76870000  1.0
  C  C179  1  0.56780000  0.54530000  0.76750000  1.0
  C  C180  1  0.52980000  0.53590000  0.83580000  1.0
  C  C181  1  0.58600000  0.61360000  0.90600000  1.0
  C  C182  1  0.47920000  0.48660000  0.83660000  1.0
  C  C183  1  0.48210000  0.44770000  0.77380000  1.0
  C  C184  1  0.44400000  0.40140000  0.77820000  1.0
  C  C185  1  0.40110000  0.39160000  0.84400000  1.0
  C  C186  1  0.39500000  0.43160000  0.90570000  1.0
  C  C187  1  0.36470000  0.33800000  0.84970000  1.0
  C  C188  1  0.37530000  0.32540000  0.54270000  1.0
  C  C189  1  0.41360000  0.37780000  0.52790000  1.0
  C  C190  1  0.48070000  0.40220000  0.57250000  1.0
  C  C191  1  0.51380000  0.44860000  0.56120000  1.0
  C  C192  1  0.48220000  0.47440000  0.50490000  1.0
  C  C193  1  0.38200000  0.40340000  0.46630000  1.0
  C  C194  1  0.14710000  0.17910000  0.61530000  1.0
  C  C195  1  0.09320000  0.13340000  0.63240000  1.0
  C  C196  1  0.10960000  0.11100000  0.70060000  1.0
  C  C197  1  0.06480000  0.06610000  0.71470000  1.0
  C  C198  1  0.00360000  0.04360000  0.66060000  1.0
  C  C199  1  0.03190000  0.11090000  0.57840000  1.0
  C  C200  1  0.86720000  0.84220000  0.69420000  1.0
  C  C201  1  0.96120000  0.99550000  0.66540000  1.0
  C  C202  1  0.96990000  0.97670000  0.73750000  1.0
  C  C203  1  0.93680000  0.92740000  0.74690000  1.0
  C  C204  1  0.89490000  0.89680000  0.68400000  1.0
  C  C205  1  0.88630000  0.91560000  0.61180000  1.0
  C  C206  1  0.33333333  0.16530000  0.49450000  1.0
  C  C207  1  0.38480000  0.11540000  0.49270000  1.0
  C  C208  1  0.39300000  0.07970000  0.42530000  1.0
  C  C209  1  0.44000000  0.03410000  0.42950000  1.0
  C  C210  1  0.47500000  0.02450000  0.49540000  1.0
  C  C211  1  0.42700000  0.10410000  0.55820000  1.0
  C  C212  1  0.18750000  0.32930000  0.65790000  1.0
  C  C213  1  0.12950000  0.37570000  0.66150000  1.0
  C  C214  1  0.11900000  0.41060000  0.73130000  1.0
  C  C215  1  0.06780000  0.45470000  0.73250000  1.0
  C  C216  1  0.02980000  0.46410000  0.66420000  1.0
  C  C217  1  0.08600000  0.38640000  0.59400000  1.0
  C  C218  1  0.97920000  0.51340000  0.66340000  1.0
  C  C219  1  0.98210000  0.55230000  0.72620000  1.0
  C  C220  1  0.94400000  0.59860000  0.72180000  1.0
  C  C221  1  0.90110000  0.60840000  0.65600000  1.0
  C  C222  1  0.89500000  0.56840000  0.59430000  1.0
  C  C223  1  0.86470000  0.66200000  0.65030000  1.0
  N  N224  1  0.08400000  0.45210000  0.95320000  1.0
  N  N225  1  0.51290000  0.06610000  0.09250000  1.0
  N  N226  1  0.58060000  0.96500000  0.10250000  1.0
  N  N227  1  0.03000000  0.05980000  0.06100000  1.0
  N  N228  1  0.46450000  0.42990000  0.09640000  1.0
  N  N229  1  0.56600000  0.51880000  0.09500000  1.0
  N  N230  1  0.58400000  0.54790000  0.54680000  1.0
  N  N231  1  0.01290000  0.93390000  0.40750000  1.0
  N  N232  1  0.08060000  0.03500000  0.39750000  1.0
  N  N233  1  0.53000000  0.94020000  0.43900000  1.0
  N  N234  1  0.96450000  0.57010000  0.40360000  1.0
  N  N235  1  0.06600000  0.48120000  0.40500000  1.0
  N  N236  1  0.91600000  0.54790000  0.04680000  1.0
  N  N237  1  0.48710000  0.93390000  0.90750000  1.0
  N  N238  1  0.41940000  0.03500000  0.89750000  1.0
  N  N239  1  0.97000000  0.94020000  0.93900000  1.0
  N  N240  1  0.53550000  0.57010000  0.90360000  1.0
  N  N241  1  0.43400000  0.48120000  0.90500000  1.0
  N  N242  1  0.41600000  0.45210000  0.45320000  1.0
  N  N243  1  0.98710000  0.06610000  0.59250000  1.0
  N  N244  1  0.91940000  0.96500000  0.60250000  1.0
  N  N245  1  0.47000000  0.05980000  0.56100000  1.0
  N  N246  1  0.03550000  0.42990000  0.59640000  1.0
  N  N247  1  0.93400000  0.51880000  0.59500000  1.0
  O  O248  1  0.16560000  0.30030000  0.98580000  1.0
  O  O249  1  0.11370000  0.31330000  0.11000000  1.0
  O  O250  1  0.35650000  0.18890000  0.04520000  1.0
  O  O251  1  0.30900000  0.20310000  0.17110000  1.0
  O  O252  1  0.63260000  0.80910000  0.13360000  1.0
  O  O253  1  0.65110000  0.83320000  0.26150000  1.0
  O  O254  1  0.20240000  0.17360000  0.93190000  1.0
  O  O255  1  0.17190000  0.19730000  0.05800000  1.0
  O  O256  1  0.30010000  0.30040000  0.09310000  1.0
  O  O257  1  0.27460000  0.32210000  0.22080000  1.0
  O  O258  1  0.67720000  0.66770000  0.08930000  1.0
  O  O259  1  0.61590000  0.69860000  0.20570000  1.0
  O  O260  1  0.66560000  0.69970000  0.51420000  1.0
  O  O261  1  0.61370000  0.68670000  0.39000000  1.0
  O  O262  1  0.85650000  0.81110000  0.45480000  1.0
  O  O263  1  0.80900000  0.79690000  0.32890000  1.0
  O  O264  1  0.13260000  0.19090000  0.36640000  1.0
  O  O265  1  0.15110000  0.16680000  0.23850000  1.0
  O  O266  1  0.70240000  0.82640000  0.56810000  1.0
  O  O267  1  0.67190000  0.80270000  0.44200000  1.0
  O  O268  1  0.80010000  0.69960000  0.40690000  1.0
  O  O269  1  0.77460000  0.67790000  0.27920000  1.0
  O  O270  1  0.17720000  0.33230000  0.41070000  1.0
  O  O271  1  0.11590000  0.30140000  0.29430000  1.0
  O  O272  1  0.83440000  0.69970000  0.01420000  1.0
  O  O273  1  0.88630000  0.68670000  0.89000000  1.0
  O  O274  1  0.64350000  0.81110000  0.95480000  1.0
  O  O275  1  0.69100000  0.79690000  0.82890000  1.0
  O  O276  1  0.36740000  0.19090000  0.86640000  1.0
  O  O277  1  0.34890000  0.16680000  0.73850000  1.0
  O  O278  1  0.79760000  0.82640000  0.06810000  1.0
  O  O279  1  0.82810000  0.80270000  0.94200000  1.0
  O  O280  1  0.69990000  0.69960000  0.90690000  1.0
  O  O281  1  0.72540000  0.67790000  0.77920000  1.0
  O  O282  1  0.32280000  0.33230000  0.91070000  1.0
  O  O283  1  0.38410000  0.30140000  0.79430000  1.0
  O  O284  1  0.33440000  0.30030000  0.48580000  1.0
  O  O285  1  0.38630000  0.31330000  0.61000000  1.0
  O  O286  1  0.14350000  0.18890000  0.54520000  1.0
  O  O287  1  0.19100000  0.20310000  0.67110000  1.0
  O  O288  1  0.86740000  0.80910000  0.63360000  1.0
  O  O289  1  0.84890000  0.83320000  0.76150000  1.0
  O  O290  1  0.29760000  0.17360000  0.43190000  1.0
  O  O291  1  0.32810000  0.19730000  0.55800000  1.0
  O  O292  1  0.19990000  0.30040000  0.59310000  1.0
  O  O293  1  0.22540000  0.32210000  0.72080000  1.0
  O  O294  1  0.82280000  0.66770000  0.58930000  1.0
  O  O295  1  0.88410000  0.69860000  0.70570000  1.0
