# generated using pymatgen
data_V5Zn3H6C6N9O10
_symmetry_space_group_name_H-M   'P 1'
_cell_length_a   17.29990000
_cell_length_b   18.03960000
_cell_length_c   24.67700000
_cell_angle_alpha   90.00000000
_cell_angle_beta   90.00000000
_cell_angle_gamma   90.00000000
_symmetry_Int_Tables_number   1
_chemical_formula_structural   V5Zn3H6C6N9O10
_chemical_formula_sum   'V40 Zn24 H48 C48 N72 O80'
_cell_volume   7701.27900284
_cell_formula_units_Z   8
loop_
 _symmetry_equiv_pos_site_id
 _symmetry_equiv_pos_as_xyz
  1  'x, y, z'
loop_
 _atom_site_type_symbol
 _atom_site_label
 _atom_site_symmetry_multiplicity
 _atom_site_fract_x
 _atom_site_fract_y
 _atom_site_fract_z
 _atom_site_occupancy
  V  V0  1  0.83683000  0.30552000  0.90768000  1.0
  V  V1  1  0.90420000  0.30175000  0.02313000  1.0
  V  V2  1  0.68179000  0.38637000  0.88494000  1.0
  V  V3  1  0.68206000  0.21670000  0.88556000  1.0
  V  V4  1  0.33683000  0.19448000  0.59232000  1.0
  V  V5  1  0.40420000  0.19825000  0.47687000  1.0
  V  V6  1  0.18179000  0.11363000  0.61506000  1.0
  V  V7  1  0.18206000  0.28330000  0.61444000  1.0
  V  V8  1  0.66317000  0.30552000  0.09232000  1.0
  V  V9  1  0.59580000  0.30175000  0.97687000  1.0
  V  V10  1  0.81821000  0.38637000  0.11506000  1.0
  V  V11  1  0.81794000  0.21670000  0.11444000  1.0
  V  V12  1  0.16317000  0.19448000  0.40768000  1.0
  V  V13  1  0.09580000  0.19825000  0.52313000  1.0
  V  V14  1  0.31821000  0.11363000  0.38494000  1.0
  V  V15  1  0.31794000  0.28330000  0.38556000  1.0
  V  V16  1  0.16317000  0.69448000  0.09232000  1.0
  V  V17  1  0.09580000  0.69825000  0.97687000  1.0
  V  V18  1  0.31821000  0.61363000  0.11506000  1.0
  V  V19  1  0.31794000  0.78330000  0.11444000  1.0
  V  V20  1  0.66317000  0.80552000  0.40768000  1.0
  V  V21  1  0.59580000  0.80175000  0.52313000  1.0
  V  V22  1  0.81821000  0.88637000  0.38494000  1.0
  V  V23  1  0.81794000  0.71670000  0.38556000  1.0
  V  V24  1  0.33683000  0.69448000  0.90768000  1.0
  V  V25  1  0.40420000  0.69825000  0.02313000  1.0
  V  V26  1  0.18179000  0.61363000  0.88494000  1.0
  V  V27  1  0.18206000  0.78330000  0.88556000  1.0
  V  V28  1  0.83683000  0.80552000  0.59232000  1.0
  V  V29  1  0.90420000  0.80175000  0.47687000  1.0
  V  V30  1  0.68179000  0.88637000  0.61506000  1.0
  V  V31  1  0.68206000  0.71670000  0.61444000  1.0
  V  V32  1  0.75000000  0.39299000  0.00000000  1.0
  V  V33  1  0.75000000  0.21193000  0.00000000  1.0
  V  V34  1  0.25000000  0.10701000  0.50000000  1.0
  V  V35  1  0.25000000  0.28807000  0.50000000  1.0
  V  V36  1  0.25000000  0.60701000  0.00000000  1.0
  V  V37  1  0.25000000  0.78807000  0.00000000  1.0
  V  V38  1  0.75000000  0.89299000  0.50000000  1.0
  V  V39  1  0.75000000  0.71193000  0.50000000  1.0
  Zn  Zn40  1  0.69861000  0.34922000  0.66729000  1.0
  Zn  Zn41  1  0.85081000  0.15052000  0.83225000  1.0
  Zn  Zn42  1  0.90436000  0.07078000  0.70371000  1.0
  Zn  Zn43  1  0.19861000  0.15078000  0.83271000  1.0
  Zn  Zn44  1  0.35081000  0.34948000  0.66775000  1.0
  Zn  Zn45  1  0.40436000  0.42922000  0.79629000  1.0
  Zn  Zn46  1  0.80139000  0.34922000  0.33271000  1.0
  Zn  Zn47  1  0.64919000  0.15052000  0.16775000  1.0
  Zn  Zn48  1  0.59564000  0.07078000  0.29629000  1.0
  Zn  Zn49  1  0.30139000  0.15078000  0.16729000  1.0
  Zn  Zn50  1  0.14919000  0.34948000  0.33225000  1.0
  Zn  Zn51  1  0.09564000  0.42922000  0.20371000  1.0
  Zn  Zn52  1  0.30139000  0.65078000  0.33271000  1.0
  Zn  Zn53  1  0.14919000  0.84948000  0.16775000  1.0
  Zn  Zn54  1  0.09564000  0.92922000  0.29629000  1.0
  Zn  Zn55  1  0.80139000  0.84922000  0.16729000  1.0
  Zn  Zn56  1  0.64919000  0.65052000  0.33225000  1.0
  Zn  Zn57  1  0.59564000  0.57078000  0.20371000  1.0
  Zn  Zn58  1  0.19861000  0.65078000  0.66729000  1.0
  Zn  Zn59  1  0.35081000  0.84948000  0.83225000  1.0
  Zn  Zn60  1  0.40436000  0.92922000  0.70371000  1.0
  Zn  Zn61  1  0.69861000  0.84922000  0.83271000  1.0
  Zn  Zn62  1  0.85081000  0.65052000  0.66775000  1.0
  Zn  Zn63  1  0.90436000  0.57078000  0.79629000  1.0
  H  H64  1  0.74750000  0.00890000  0.87180000  1.0
  H  H65  1  0.74750000  0.28250000  0.77600000  1.0
  H  H66  1  0.79990000  0.91800000  0.73290000  1.0
  H  H67  1  0.09050000  0.09540000  0.73270000  1.0
  H  H68  1  0.80020000  0.20030000  0.63390000  1.0
  H  H69  1  0.02840000  0.18980000  0.86880000  1.0
  H  H70  1  0.24750000  0.49110000  0.62820000  1.0
  H  H71  1  0.24750000  0.21750000  0.72400000  1.0
  H  H72  1  0.29990000  0.58200000  0.76710000  1.0
  H  H73  1  0.59050000  0.40460000  0.76730000  1.0
  H  H74  1  0.30020000  0.29970000  0.86610000  1.0
  H  H75  1  0.52840000  0.31020000  0.63120000  1.0
  H  H76  1  0.75250000  0.00890000  0.12820000  1.0
  H  H77  1  0.75250000  0.28250000  0.22400000  1.0
  H  H78  1  0.70010000  0.91800000  0.26710000  1.0
  H  H79  1  0.40950000  0.09540000  0.26730000  1.0
  H  H80  1  0.69980000  0.20030000  0.36610000  1.0
  H  H81  1  0.47160000  0.18980000  0.13120000  1.0
  H  H82  1  0.25250000  0.49110000  0.37180000  1.0
  H  H83  1  0.25250000  0.21750000  0.27600000  1.0
  H  H84  1  0.20010000  0.58200000  0.23290000  1.0
  H  H85  1  0.90950000  0.40460000  0.23270000  1.0
  H  H86  1  0.19980000  0.29970000  0.13390000  1.0
  H  H87  1  0.97160000  0.31020000  0.36880000  1.0
  H  H88  1  0.25250000  0.99110000  0.12820000  1.0
  H  H89  1  0.25250000  0.71750000  0.22400000  1.0
  H  H90  1  0.20010000  0.08200000  0.26710000  1.0
  H  H91  1  0.90950000  0.90460000  0.26730000  1.0
  H  H92  1  0.19980000  0.79970000  0.36610000  1.0
  H  H93  1  0.97160000  0.81020000  0.13120000  1.0
  H  H94  1  0.75250000  0.50890000  0.37180000  1.0
  H  H95  1  0.75250000  0.78250000  0.27600000  1.0
  H  H96  1  0.70010000  0.41800000  0.23290000  1.0
  H  H97  1  0.40950000  0.59540000  0.23270000  1.0
  H  H98  1  0.69980000  0.70030000  0.13390000  1.0
  H  H99  1  0.47160000  0.68980000  0.36880000  1.0
  H  H100  1  0.24750000  0.99110000  0.87180000  1.0
  H  H101  1  0.24750000  0.71750000  0.77600000  1.0
  H  H102  1  0.29990000  0.08200000  0.73290000  1.0
  H  H103  1  0.59050000  0.90460000  0.73270000  1.0
  H  H104  1  0.30020000  0.79970000  0.63390000  1.0
  H  H105  1  0.52840000  0.81020000  0.86880000  1.0
  H  H106  1  0.74750000  0.50890000  0.62820000  1.0
  H  H107  1  0.74750000  0.78250000  0.72400000  1.0
  H  H108  1  0.79990000  0.41800000  0.76710000  1.0
  H  H109  1  0.09050000  0.59540000  0.76730000  1.0
  H  H110  1  0.80020000  0.70030000  0.86610000  1.0
  H  H111  1  0.02840000  0.68980000  0.63120000  1.0
  C  C112  1  0.76890000  0.00050000  0.83686000  1.0
  C  C113  1  0.76870000  0.25190000  0.74834000  1.0
  C  C114  1  0.79730000  0.95170000  0.76239000  1.0
  C  C115  1  0.06010000  0.11530000  0.76129000  1.0
  C  C116  1  0.79710000  0.20770000  0.67200000  1.0
  C  C117  1  0.02690000  0.16610000  0.83445000  1.0
  C  C118  1  0.26890000  0.49950000  0.66314000  1.0
  C  C119  1  0.26870000  0.24810000  0.75166000  1.0
  C  C120  1  0.29730000  0.54830000  0.73761000  1.0
  C  C121  1  0.56010000  0.38470000  0.73871000  1.0
  C  C122  1  0.29710000  0.29230000  0.82800000  1.0
  C  C123  1  0.52690000  0.33390000  0.66555000  1.0
  C  C124  1  0.73110000  0.00050000  0.16314000  1.0
  C  C125  1  0.73130000  0.25190000  0.25166000  1.0
  C  C126  1  0.70270000  0.95170000  0.23761000  1.0
  C  C127  1  0.43990000  0.11530000  0.23871000  1.0
  C  C128  1  0.70290000  0.20770000  0.32800000  1.0
  C  C129  1  0.47310000  0.16610000  0.16555000  1.0
  C  C130  1  0.23110000  0.49950000  0.33686000  1.0
  C  C131  1  0.23130000  0.24810000  0.24834000  1.0
  C  C132  1  0.20270000  0.54830000  0.26239000  1.0
  C  C133  1  0.93990000  0.38470000  0.26129000  1.0
  C  C134  1  0.20290000  0.29230000  0.17200000  1.0
  C  C135  1  0.97310000  0.33390000  0.33445000  1.0
  C  C136  1  0.23110000  0.99950000  0.16314000  1.0
  C  C137  1  0.23130000  0.74810000  0.25166000  1.0
  C  C138  1  0.20270000  0.04830000  0.23761000  1.0
  C  C139  1  0.93990000  0.88470000  0.23871000  1.0
  C  C140  1  0.20290000  0.79230000  0.32800000  1.0
  C  C141  1  0.97310000  0.83390000  0.16555000  1.0
  C  C142  1  0.73110000  0.50050000  0.33686000  1.0
  C  C143  1  0.73130000  0.75190000  0.24834000  1.0
  C  C144  1  0.70270000  0.45170000  0.26239000  1.0
  C  C145  1  0.43990000  0.61530000  0.26129000  1.0
  C  C146  1  0.70290000  0.70770000  0.17200000  1.0
  C  C147  1  0.47310000  0.66610000  0.33445000  1.0
  C  C148  1  0.26890000  0.99950000  0.83686000  1.0
  C  C149  1  0.26870000  0.74810000  0.74834000  1.0
  C  C150  1  0.29730000  0.04830000  0.76239000  1.0
  C  C151  1  0.56010000  0.88470000  0.76129000  1.0
  C  C152  1  0.29710000  0.79230000  0.67200000  1.0
  C  C153  1  0.52690000  0.83390000  0.83445000  1.0
  C  C154  1  0.76890000  0.50050000  0.66314000  1.0
  C  C155  1  0.76870000  0.75190000  0.75166000  1.0
  C  C156  1  0.79730000  0.45170000  0.73761000  1.0
  C  C157  1  0.06010000  0.61530000  0.73871000  1.0
  C  C158  1  0.79710000  0.70770000  0.82800000  1.0
  C  C159  1  0.02690000  0.66610000  0.66555000  1.0
  N  N160  1  0.75620000  0.26265000  0.69551000  1.0
  N  N161  1  0.75570000  0.93900000  0.80772000  1.0
  N  N162  1  0.81400000  0.04732000  0.81238000  1.0
  N  N163  1  0.96291000  0.14900000  0.80904000  1.0
  N  N164  1  0.83350000  0.01520000  0.76336000  1.0
  N  N165  1  0.83225000  0.16556000  0.70797000  1.0
  N  N166  1  0.81310000  0.19480000  0.75791000  1.0
  N  N167  1  0.98415000  0.11584000  0.76137000  1.0
  N  N168  1  0.09010000  0.14650000  0.80653000  1.0
  N  N169  1  0.25620000  0.23735000  0.80449000  1.0
  N  N170  1  0.25570000  0.56100000  0.69228000  1.0
  N  N171  1  0.31400000  0.45268000  0.68762000  1.0
  N  N172  1  0.46291000  0.35100000  0.69096000  1.0
  N  N173  1  0.33350000  0.48480000  0.73664000  1.0
  N  N174  1  0.33225000  0.33444000  0.79203000  1.0
  N  N175  1  0.31310000  0.30520000  0.74209000  1.0
  N  N176  1  0.48415000  0.38416000  0.73863000  1.0
  N  N177  1  0.59010000  0.35350000  0.69347000  1.0
  N  N178  1  0.74380000  0.26265000  0.30449000  1.0
  N  N179  1  0.74430000  0.93900000  0.19228000  1.0
  N  N180  1  0.68600000  0.04732000  0.18762000  1.0
  N  N181  1  0.53709000  0.14900000  0.19096000  1.0
  N  N182  1  0.66650000  0.01520000  0.23664000  1.0
  N  N183  1  0.66775000  0.16556000  0.29203000  1.0
  N  N184  1  0.68690000  0.19480000  0.24209000  1.0
  N  N185  1  0.51585000  0.11584000  0.23863000  1.0
  N  N186  1  0.40990000  0.14650000  0.19347000  1.0
  N  N187  1  0.24380000  0.23735000  0.19551000  1.0
  N  N188  1  0.24430000  0.56100000  0.30772000  1.0
  N  N189  1  0.18600000  0.45268000  0.31238000  1.0
  N  N190  1  0.03709000  0.35100000  0.30904000  1.0
  N  N191  1  0.16650000  0.48480000  0.26336000  1.0
  N  N192  1  0.16775000  0.33444000  0.20797000  1.0
  N  N193  1  0.18690000  0.30520000  0.25791000  1.0
  N  N194  1  0.01585000  0.38416000  0.26137000  1.0
  N  N195  1  0.90990000  0.35350000  0.30653000  1.0
  N  N196  1  0.24380000  0.73735000  0.30449000  1.0
  N  N197  1  0.24430000  0.06100000  0.19228000  1.0
  N  N198  1  0.18600000  0.95268000  0.18762000  1.0
  N  N199  1  0.03709000  0.85100000  0.19096000  1.0
  N  N200  1  0.16650000  0.98480000  0.23664000  1.0
  N  N201  1  0.16775000  0.83444000  0.29203000  1.0
  N  N202  1  0.18690000  0.80520000  0.24209000  1.0
  N  N203  1  0.01585000  0.88416000  0.23863000  1.0
  N  N204  1  0.90990000  0.85350000  0.19347000  1.0
  N  N205  1  0.74380000  0.76265000  0.19551000  1.0
  N  N206  1  0.74430000  0.43900000  0.30772000  1.0
  N  N207  1  0.68600000  0.54732000  0.31238000  1.0
  N  N208  1  0.53709000  0.64900000  0.30904000  1.0
  N  N209  1  0.66650000  0.51520000  0.26336000  1.0
  N  N210  1  0.66775000  0.66556000  0.20797000  1.0
  N  N211  1  0.68690000  0.69480000  0.25791000  1.0
  N  N212  1  0.51585000  0.61584000  0.26137000  1.0
  N  N213  1  0.40990000  0.64650000  0.30653000  1.0
  N  N214  1  0.25620000  0.73735000  0.69551000  1.0
  N  N215  1  0.25570000  0.06100000  0.80772000  1.0
  N  N216  1  0.31400000  0.95268000  0.81238000  1.0
  N  N217  1  0.46291000  0.85100000  0.80904000  1.0
  N  N218  1  0.33350000  0.98480000  0.76336000  1.0
  N  N219  1  0.33225000  0.83444000  0.70797000  1.0
  N  N220  1  0.31310000  0.80520000  0.75791000  1.0
  N  N221  1  0.48415000  0.88416000  0.76137000  1.0
  N  N222  1  0.59010000  0.85350000  0.80653000  1.0
  N  N223  1  0.75620000  0.76265000  0.80449000  1.0
  N  N224  1  0.75570000  0.43900000  0.69228000  1.0
  N  N225  1  0.81400000  0.54732000  0.68762000  1.0
  N  N226  1  0.96291000  0.64900000  0.69096000  1.0
  N  N227  1  0.83350000  0.51520000  0.73664000  1.0
  N  N228  1  0.83225000  0.66556000  0.79203000  1.0
  N  N229  1  0.81310000  0.69480000  0.74209000  1.0
  N  N230  1  0.98415000  0.61584000  0.73863000  1.0
  N  N231  1  0.09010000  0.64650000  0.69347000  1.0
  O  O232  1  0.72052000  0.15513000  0.94961000  1.0
  O  O233  1  0.85117000  0.23420000  0.97120000  1.0
  O  O234  1  0.72034000  0.44884000  0.94913000  1.0
  O  O235  1  0.66126000  0.30154000  0.84760000  1.0
  O  O236  1  0.85165000  0.37103000  0.97124000  1.0
  O  O237  1  0.90779000  0.37597000  0.07348000  1.0
  O  O238  1  0.72131000  0.30227000  0.94957000  1.0
  O  O239  1  0.90751000  0.22719000  0.07320000  1.0
  O  O240  1  0.78983000  0.37736000  0.86994000  1.0
  O  O241  1  0.79061000  0.22664000  0.87140000  1.0
  O  O242  1  0.22052000  0.34487000  0.55039000  1.0
  O  O243  1  0.35117000  0.26580000  0.52880000  1.0
  O  O244  1  0.22034000  0.05116000  0.55087000  1.0
  O  O245  1  0.16126000  0.19846000  0.65240000  1.0
  O  O246  1  0.35165000  0.12897000  0.52876000  1.0
  O  O247  1  0.40779000  0.12403000  0.42652000  1.0
  O  O248  1  0.22131000  0.19773000  0.55043000  1.0
  O  O249  1  0.40751000  0.27281000  0.42680000  1.0
  O  O250  1  0.28983000  0.12264000  0.63006000  1.0
  O  O251  1  0.29061000  0.27336000  0.62860000  1.0
  O  O252  1  0.77948000  0.15513000  0.05039000  1.0
  O  O253  1  0.64883000  0.23420000  0.02880000  1.0
  O  O254  1  0.77966000  0.44884000  0.05087000  1.0
  O  O255  1  0.83874000  0.30154000  0.15240000  1.0
  O  O256  1  0.64835000  0.37103000  0.02876000  1.0
  O  O257  1  0.59221000  0.37597000  0.92652000  1.0
  O  O258  1  0.77869000  0.30227000  0.05043000  1.0
  O  O259  1  0.59249000  0.22719000  0.92680000  1.0
  O  O260  1  0.71017000  0.37736000  0.13006000  1.0
  O  O261  1  0.70939000  0.22664000  0.12860000  1.0
  O  O262  1  0.27948000  0.34487000  0.44961000  1.0
  O  O263  1  0.14883000  0.26580000  0.47120000  1.0
  O  O264  1  0.27966000  0.05116000  0.44913000  1.0
  O  O265  1  0.33874000  0.19846000  0.34760000  1.0
  O  O266  1  0.14835000  0.12897000  0.47124000  1.0
  O  O267  1  0.09221000  0.12403000  0.57348000  1.0
  O  O268  1  0.27869000  0.19773000  0.44957000  1.0
  O  O269  1  0.09249000  0.27281000  0.57320000  1.0
  O  O270  1  0.21017000  0.12264000  0.36994000  1.0
  O  O271  1  0.20939000  0.27336000  0.37140000  1.0
  O  O272  1  0.27948000  0.84487000  0.05039000  1.0
  O  O273  1  0.14883000  0.76580000  0.02880000  1.0
  O  O274  1  0.27966000  0.55116000  0.05087000  1.0
  O  O275  1  0.33874000  0.69846000  0.15240000  1.0
  O  O276  1  0.14835000  0.62897000  0.02876000  1.0
  O  O277  1  0.09221000  0.62403000  0.92652000  1.0
  O  O278  1  0.27869000  0.69773000  0.05043000  1.0
  O  O279  1  0.09249000  0.77281000  0.92680000  1.0
  O  O280  1  0.21017000  0.62264000  0.13006000  1.0
  O  O281  1  0.20939000  0.77336000  0.12860000  1.0
  O  O282  1  0.77948000  0.65513000  0.44961000  1.0
  O  O283  1  0.64883000  0.73420000  0.47120000  1.0
  O  O284  1  0.77966000  0.94884000  0.44913000  1.0
  O  O285  1  0.83874000  0.80154000  0.34760000  1.0
  O  O286  1  0.64835000  0.87103000  0.47124000  1.0
  O  O287  1  0.59221000  0.87597000  0.57348000  1.0
  O  O288  1  0.77869000  0.80227000  0.44957000  1.0
  O  O289  1  0.59249000  0.72719000  0.57320000  1.0
  O  O290  1  0.71017000  0.87736000  0.36994000  1.0
  O  O291  1  0.70939000  0.72664000  0.37140000  1.0
  O  O292  1  0.22052000  0.84487000  0.94961000  1.0
  O  O293  1  0.35117000  0.76580000  0.97120000  1.0
  O  O294  1  0.22034000  0.55116000  0.94913000  1.0
  O  O295  1  0.16126000  0.69846000  0.84760000  1.0
  O  O296  1  0.35165000  0.62897000  0.97124000  1.0
  O  O297  1  0.40779000  0.62403000  0.07348000  1.0
  O  O298  1  0.22131000  0.69773000  0.94957000  1.0
  O  O299  1  0.40751000  0.77281000  0.07320000  1.0
  O  O300  1  0.28983000  0.62264000  0.86994000  1.0
  O  O301  1  0.29061000  0.77336000  0.87140000  1.0
  O  O302  1  0.72052000  0.65513000  0.55039000  1.0
  O  O303  1  0.85117000  0.73420000  0.52880000  1.0
  O  O304  1  0.72034000  0.94884000  0.55087000  1.0
  O  O305  1  0.66126000  0.80154000  0.65240000  1.0
  O  O306  1  0.85165000  0.87103000  0.52876000  1.0
  O  O307  1  0.90779000  0.87597000  0.42652000  1.0
  O  O308  1  0.72131000  0.80227000  0.55043000  1.0
  O  O309  1  0.90751000  0.72719000  0.42680000  1.0
  O  O310  1  0.78983000  0.87736000  0.63006000  1.0
  O  O311  1  0.79061000  0.72664000  0.62860000  1.0
