# generated using pymatgen
data_Zn6H26C44O13
_symmetry_space_group_name_H-M   'P 1'
_cell_length_a   22.51500000
_cell_length_b   22.51500000
_cell_length_c   22.51500000
_cell_angle_alpha   90.00000000
_cell_angle_beta   90.00000000
_cell_angle_gamma   90.00000000
_symmetry_Int_Tables_number   1
_chemical_formula_structural   Zn6H26C44O13
_chemical_formula_sum   'Zn48 H208 C352 O104'
_cell_volume   11413.42144088
_cell_formula_units_Z   8
loop_
 _symmetry_equiv_pos_site_id
 _symmetry_equiv_pos_as_xyz
  1  'x, y, z'
loop_
 _atom_site_type_symbol
 _atom_site_label
 _atom_site_symmetry_multiplicity
 _atom_site_fract_x
 _atom_site_fract_y
 _atom_site_fract_z
 _atom_site_occupancy
  Zn  Zn0  1  0.67741000  0.23739000  0.20381000  1.0
  Zn  Zn1  1  0.82259000  0.76261000  0.70381000  1.0
  Zn  Zn2  1  0.32259000  0.73739000  0.29619000  1.0
  Zn  Zn3  1  0.17741000  0.26261000  0.79619000  1.0
  Zn  Zn4  1  0.20381000  0.67741000  0.23739000  1.0
  Zn  Zn5  1  0.70381000  0.82259000  0.76261000  1.0
  Zn  Zn6  1  0.29619000  0.32259000  0.73739000  1.0
  Zn  Zn7  1  0.79619000  0.17741000  0.26261000  1.0
  Zn  Zn8  1  0.23739000  0.20381000  0.67741000  1.0
  Zn  Zn9  1  0.76261000  0.70381000  0.82259000  1.0
  Zn  Zn10  1  0.73739000  0.29619000  0.32259000  1.0
  Zn  Zn11  1  0.26261000  0.79619000  0.17741000  1.0
  Zn  Zn12  1  0.82259000  0.26261000  0.29619000  1.0
  Zn  Zn13  1  0.67741000  0.73739000  0.79619000  1.0
  Zn  Zn14  1  0.17741000  0.76261000  0.20381000  1.0
  Zn  Zn15  1  0.32259000  0.23739000  0.70381000  1.0
  Zn  Zn16  1  0.29619000  0.82259000  0.26261000  1.0
  Zn  Zn17  1  0.79619000  0.67741000  0.73739000  1.0
  Zn  Zn18  1  0.20381000  0.17741000  0.76261000  1.0
  Zn  Zn19  1  0.70381000  0.32259000  0.23739000  1.0
  Zn  Zn20  1  0.26261000  0.29619000  0.82259000  1.0
  Zn  Zn21  1  0.73739000  0.79619000  0.67741000  1.0
  Zn  Zn22  1  0.76261000  0.20381000  0.17741000  1.0
  Zn  Zn23  1  0.23739000  0.70381000  0.32259000  1.0
  Zn  Zn24  1  0.17741000  0.73739000  0.70381000  1.0
  Zn  Zn25  1  0.32259000  0.26261000  0.20381000  1.0
  Zn  Zn26  1  0.82259000  0.23739000  0.79619000  1.0
  Zn  Zn27  1  0.67741000  0.76261000  0.29619000  1.0
  Zn  Zn28  1  0.70381000  0.17741000  0.73739000  1.0
  Zn  Zn29  1  0.20381000  0.32259000  0.26261000  1.0
  Zn  Zn30  1  0.79619000  0.82259000  0.23739000  1.0
  Zn  Zn31  1  0.29619000  0.67741000  0.76261000  1.0
  Zn  Zn32  1  0.73739000  0.70381000  0.17741000  1.0
  Zn  Zn33  1  0.26261000  0.20381000  0.32259000  1.0
  Zn  Zn34  1  0.23739000  0.79619000  0.82259000  1.0
  Zn  Zn35  1  0.76261000  0.29619000  0.67741000  1.0
  Zn  Zn36  1  0.32259000  0.76261000  0.79619000  1.0
  Zn  Zn37  1  0.17741000  0.23739000  0.29619000  1.0
  Zn  Zn38  1  0.67741000  0.26261000  0.70381000  1.0
  Zn  Zn39  1  0.82259000  0.73739000  0.20381000  1.0
  Zn  Zn40  1  0.79619000  0.32259000  0.76261000  1.0
  Zn  Zn41  1  0.29619000  0.17741000  0.23739000  1.0
  Zn  Zn42  1  0.70381000  0.67741000  0.26261000  1.0
  Zn  Zn43  1  0.20381000  0.82259000  0.73739000  1.0
  Zn  Zn44  1  0.76261000  0.79619000  0.32259000  1.0
  Zn  Zn45  1  0.23739000  0.29619000  0.17741000  1.0
  Zn  Zn46  1  0.26261000  0.70381000  0.67741000  1.0
  Zn  Zn47  1  0.73739000  0.20381000  0.82259000  1.0
  H  H48  1  0.67080000  0.40800000  0.06280000  1.0
  H  H49  1  0.65060000  0.43510000  0.96620000  1.0
  H  H50  1  0.64910000  0.26460000  0.91770000  1.0
  H  H51  1  0.67270000  0.23690000  0.01350000  1.0
  H  H52  1  0.82920000  0.59200000  0.56280000  1.0
  H  H53  1  0.84940000  0.56490000  0.46620000  1.0
  H  H54  1  0.85090000  0.73540000  0.41770000  1.0
  H  H55  1  0.82730000  0.76310000  0.51350000  1.0
  H  H56  1  0.32920000  0.90800000  0.43720000  1.0
  H  H57  1  0.34940000  0.93510000  0.53380000  1.0
  H  H58  1  0.35090000  0.76460000  0.58230000  1.0
  H  H59  1  0.32730000  0.73690000  0.48650000  1.0
  H  H60  1  0.17080000  0.09200000  0.93720000  1.0
  H  H61  1  0.15060000  0.06490000  0.03380000  1.0
  H  H62  1  0.14910000  0.23540000  0.08230000  1.0
  H  H63  1  0.17270000  0.26310000  0.98650000  1.0
  H  H64  1  0.06280000  0.67080000  0.40800000  1.0
  H  H65  1  0.96620000  0.65060000  0.43510000  1.0
  H  H66  1  0.91770000  0.64910000  0.26460000  1.0
  H  H67  1  0.01350000  0.67270000  0.23690000  1.0
  H  H68  1  0.56280000  0.82920000  0.59200000  1.0
  H  H69  1  0.46620000  0.84940000  0.56490000  1.0
  H  H70  1  0.41770000  0.85090000  0.73540000  1.0
  H  H71  1  0.51350000  0.82730000  0.76310000  1.0
  H  H72  1  0.43720000  0.32920000  0.90800000  1.0
  H  H73  1  0.53380000  0.34940000  0.93510000  1.0
  H  H74  1  0.58230000  0.35090000  0.76460000  1.0
  H  H75  1  0.48650000  0.32730000  0.73690000  1.0
  H  H76  1  0.93720000  0.17080000  0.09200000  1.0
  H  H77  1  0.03380000  0.15060000  0.06490000  1.0
  H  H78  1  0.08230000  0.14910000  0.23540000  1.0
  H  H79  1  0.98650000  0.17270000  0.26310000  1.0
  H  H80  1  0.40800000  0.06280000  0.67080000  1.0
  H  H81  1  0.43510000  0.96620000  0.65060000  1.0
  H  H82  1  0.26460000  0.91770000  0.64910000  1.0
  H  H83  1  0.23690000  0.01350000  0.67270000  1.0
  H  H84  1  0.59200000  0.56280000  0.82920000  1.0
  H  H85  1  0.56490000  0.46620000  0.84940000  1.0
  H  H86  1  0.73540000  0.41770000  0.85090000  1.0
  H  H87  1  0.76310000  0.51350000  0.82730000  1.0
  H  H88  1  0.90800000  0.43720000  0.32920000  1.0
  H  H89  1  0.93510000  0.53380000  0.34940000  1.0
  H  H90  1  0.76460000  0.58230000  0.35090000  1.0
  H  H91  1  0.73690000  0.48650000  0.32730000  1.0
  H  H92  1  0.09200000  0.93720000  0.17080000  1.0
  H  H93  1  0.06490000  0.03380000  0.15060000  1.0
  H  H94  1  0.23540000  0.08230000  0.14910000  1.0
  H  H95  1  0.26310000  0.98650000  0.17270000  1.0
  H  H96  1  0.82920000  0.09200000  0.43720000  1.0
  H  H97  1  0.84940000  0.06490000  0.53380000  1.0
  H  H98  1  0.85090000  0.23540000  0.58230000  1.0
  H  H99  1  0.82730000  0.26310000  0.48650000  1.0
  H  H100  1  0.67080000  0.90800000  0.93720000  1.0
  H  H101  1  0.65060000  0.93510000  0.03380000  1.0
  H  H102  1  0.64910000  0.76460000  0.08230000  1.0
  H  H103  1  0.67270000  0.73690000  0.98650000  1.0
  H  H104  1  0.17080000  0.59200000  0.06280000  1.0
  H  H105  1  0.15060000  0.56490000  0.96620000  1.0
  H  H106  1  0.14910000  0.73540000  0.91770000  1.0
  H  H107  1  0.17270000  0.76310000  0.01350000  1.0
  H  H108  1  0.32920000  0.40800000  0.56280000  1.0
  H  H109  1  0.34940000  0.43510000  0.46620000  1.0
  H  H110  1  0.35090000  0.26460000  0.41770000  1.0
  H  H111  1  0.32730000  0.23690000  0.51350000  1.0
  H  H112  1  0.43720000  0.82920000  0.09200000  1.0
  H  H113  1  0.53380000  0.84940000  0.06490000  1.0
  H  H114  1  0.58230000  0.85090000  0.23540000  1.0
  H  H115  1  0.48650000  0.82730000  0.26310000  1.0
  H  H116  1  0.93720000  0.67080000  0.90800000  1.0
  H  H117  1  0.03380000  0.65060000  0.93510000  1.0
  H  H118  1  0.08230000  0.64910000  0.76460000  1.0
  H  H119  1  0.98650000  0.67270000  0.73690000  1.0
  H  H120  1  0.06280000  0.17080000  0.59200000  1.0
  H  H121  1  0.96620000  0.15060000  0.56490000  1.0
  H  H122  1  0.91770000  0.14910000  0.73540000  1.0
  H  H123  1  0.01350000  0.17270000  0.76310000  1.0
  H  H124  1  0.56280000  0.32920000  0.40800000  1.0
  H  H125  1  0.46620000  0.34940000  0.43510000  1.0
  H  H126  1  0.41770000  0.35090000  0.26460000  1.0
  H  H127  1  0.51350000  0.32730000  0.23690000  1.0
  H  H128  1  0.09200000  0.43720000  0.82920000  1.0
  H  H129  1  0.06490000  0.53380000  0.84940000  1.0
  H  H130  1  0.23540000  0.58230000  0.85090000  1.0
  H  H131  1  0.26310000  0.48650000  0.82730000  1.0
  H  H132  1  0.90800000  0.93720000  0.67080000  1.0
  H  H133  1  0.93510000  0.03380000  0.65060000  1.0
  H  H134  1  0.76460000  0.08230000  0.64910000  1.0
  H  H135  1  0.73690000  0.98650000  0.67270000  1.0
  H  H136  1  0.59200000  0.06280000  0.17080000  1.0
  H  H137  1  0.56490000  0.96620000  0.15060000  1.0
  H  H138  1  0.73540000  0.91770000  0.14910000  1.0
  H  H139  1  0.76310000  0.01350000  0.17270000  1.0
  H  H140  1  0.40800000  0.56280000  0.32920000  1.0
  H  H141  1  0.43510000  0.46620000  0.34940000  1.0
  H  H142  1  0.26460000  0.41770000  0.35090000  1.0
  H  H143  1  0.23690000  0.51350000  0.32730000  1.0
  H  H144  1  0.66060000  0.33940000  0.83940000  1.0
  H  H145  1  0.83940000  0.66060000  0.33940000  1.0
  H  H146  1  0.33940000  0.83940000  0.66060000  1.0
  H  H147  1  0.16060000  0.16060000  0.16060000  1.0
  H  H148  1  0.83940000  0.16060000  0.66060000  1.0
  H  H149  1  0.66060000  0.83940000  0.16060000  1.0
  H  H150  1  0.16060000  0.66060000  0.83940000  1.0
  H  H151  1  0.33940000  0.33940000  0.33940000  1.0
  H  H152  1  0.17080000  0.90800000  0.56280000  1.0
  H  H153  1  0.15060000  0.93510000  0.46620000  1.0
  H  H154  1  0.14910000  0.76460000  0.41770000  1.0
  H  H155  1  0.17270000  0.73690000  0.51350000  1.0
  H  H156  1  0.32920000  0.09200000  0.06280000  1.0
  H  H157  1  0.34940000  0.06490000  0.96620000  1.0
  H  H158  1  0.35090000  0.23540000  0.91770000  1.0
  H  H159  1  0.32730000  0.26310000  0.01350000  1.0
  H  H160  1  0.82920000  0.40800000  0.93720000  1.0
  H  H161  1  0.84940000  0.43510000  0.03380000  1.0
  H  H162  1  0.85090000  0.26460000  0.08230000  1.0
  H  H163  1  0.82730000  0.23690000  0.98650000  1.0
  H  H164  1  0.67080000  0.59200000  0.43720000  1.0
  H  H165  1  0.65060000  0.56490000  0.53380000  1.0
  H  H166  1  0.64910000  0.73540000  0.58230000  1.0
  H  H167  1  0.67270000  0.76310000  0.48650000  1.0
  H  H168  1  0.56280000  0.17080000  0.90800000  1.0
  H  H169  1  0.46620000  0.15060000  0.93510000  1.0
  H  H170  1  0.41770000  0.14910000  0.76460000  1.0
  H  H171  1  0.51350000  0.17270000  0.73690000  1.0
  H  H172  1  0.06280000  0.32920000  0.09200000  1.0
  H  H173  1  0.96620000  0.34940000  0.06490000  1.0
  H  H174  1  0.91770000  0.35090000  0.23540000  1.0
  H  H175  1  0.01350000  0.32730000  0.26310000  1.0
  H  H176  1  0.93720000  0.82920000  0.40800000  1.0
  H  H177  1  0.03380000  0.84940000  0.43510000  1.0
  H  H178  1  0.08230000  0.85090000  0.26460000  1.0
  H  H179  1  0.98650000  0.82730000  0.23690000  1.0
  H  H180  1  0.43720000  0.67080000  0.59200000  1.0
  H  H181  1  0.53380000  0.65060000  0.56490000  1.0
  H  H182  1  0.58230000  0.64910000  0.73540000  1.0
  H  H183  1  0.48650000  0.67270000  0.76310000  1.0
  H  H184  1  0.90800000  0.56280000  0.17080000  1.0
  H  H185  1  0.93510000  0.46620000  0.15060000  1.0
  H  H186  1  0.76460000  0.41770000  0.14910000  1.0
  H  H187  1  0.73690000  0.51350000  0.17270000  1.0
  H  H188  1  0.09200000  0.06280000  0.32920000  1.0
  H  H189  1  0.06490000  0.96620000  0.34940000  1.0
  H  H190  1  0.23540000  0.91770000  0.35090000  1.0
  H  H191  1  0.26310000  0.01350000  0.32730000  1.0
  H  H192  1  0.40800000  0.93720000  0.82920000  1.0
  H  H193  1  0.43510000  0.03380000  0.84940000  1.0
  H  H194  1  0.26460000  0.08230000  0.85090000  1.0
  H  H195  1  0.23690000  0.98650000  0.82730000  1.0
  H  H196  1  0.59200000  0.43720000  0.67080000  1.0
  H  H197  1  0.56490000  0.53380000  0.65060000  1.0
  H  H198  1  0.73540000  0.58230000  0.64910000  1.0
  H  H199  1  0.76310000  0.48650000  0.67270000  1.0
  H  H200  1  0.32920000  0.59200000  0.93720000  1.0
  H  H201  1  0.34940000  0.56490000  0.03380000  1.0
  H  H202  1  0.35090000  0.73540000  0.08230000  1.0
  H  H203  1  0.32730000  0.76310000  0.98650000  1.0
  H  H204  1  0.17080000  0.40800000  0.43720000  1.0
  H  H205  1  0.15060000  0.43510000  0.53380000  1.0
  H  H206  1  0.14910000  0.26460000  0.58230000  1.0
  H  H207  1  0.17270000  0.23690000  0.48650000  1.0
  H  H208  1  0.67080000  0.09200000  0.56280000  1.0
  H  H209  1  0.65060000  0.06490000  0.46620000  1.0
  H  H210  1  0.64910000  0.23540000  0.41770000  1.0
  H  H211  1  0.67270000  0.26310000  0.51350000  1.0
  H  H212  1  0.82920000  0.90800000  0.06280000  1.0
  H  H213  1  0.84940000  0.93510000  0.96620000  1.0
  H  H214  1  0.85090000  0.76460000  0.91770000  1.0
  H  H215  1  0.82730000  0.73690000  0.01350000  1.0
  H  H216  1  0.93720000  0.32920000  0.59200000  1.0
  H  H217  1  0.03380000  0.34940000  0.56490000  1.0
  H  H218  1  0.08230000  0.35090000  0.73540000  1.0
  H  H219  1  0.98650000  0.32730000  0.76310000  1.0
  H  H220  1  0.43720000  0.17080000  0.40800000  1.0
  H  H221  1  0.53380000  0.15060000  0.43510000  1.0
  H  H222  1  0.58230000  0.14910000  0.26460000  1.0
  H  H223  1  0.48650000  0.17270000  0.23690000  1.0
  H  H224  1  0.56280000  0.67080000  0.09200000  1.0
  H  H225  1  0.46620000  0.65060000  0.06490000  1.0
  H  H226  1  0.41770000  0.64910000  0.23540000  1.0
  H  H227  1  0.51350000  0.67270000  0.26310000  1.0
  H  H228  1  0.06280000  0.82920000  0.90800000  1.0
  H  H229  1  0.96620000  0.84940000  0.93510000  1.0
  H  H230  1  0.91770000  0.85090000  0.76460000  1.0
  H  H231  1  0.01350000  0.82730000  0.73690000  1.0
  H  H232  1  0.59200000  0.93720000  0.32920000  1.0
  H  H233  1  0.56490000  0.03380000  0.34940000  1.0
  H  H234  1  0.73540000  0.08230000  0.35090000  1.0
  H  H235  1  0.76310000  0.98650000  0.32730000  1.0
  H  H236  1  0.40800000  0.43720000  0.17080000  1.0
  H  H237  1  0.43510000  0.53380000  0.15060000  1.0
  H  H238  1  0.26460000  0.58230000  0.14910000  1.0
  H  H239  1  0.23690000  0.48650000  0.17270000  1.0
  H  H240  1  0.09200000  0.56280000  0.67080000  1.0
  H  H241  1  0.06490000  0.46620000  0.65060000  1.0
  H  H242  1  0.23540000  0.41770000  0.64910000  1.0
  H  H243  1  0.26310000  0.51350000  0.67270000  1.0
  H  H244  1  0.90800000  0.06280000  0.82920000  1.0
  H  H245  1  0.93510000  0.96620000  0.84940000  1.0
  H  H246  1  0.76460000  0.91770000  0.85090000  1.0
  H  H247  1  0.73690000  0.01350000  0.82730000  1.0
  H  H248  1  0.16060000  0.83940000  0.33940000  1.0
  H  H249  1  0.33940000  0.16060000  0.83940000  1.0
  H  H250  1  0.83940000  0.33940000  0.16060000  1.0
  H  H251  1  0.66060000  0.66060000  0.66060000  1.0
  H  H252  1  0.33940000  0.66060000  0.16060000  1.0
  H  H253  1  0.16060000  0.33940000  0.66060000  1.0
  H  H254  1  0.66060000  0.16060000  0.33940000  1.0
  H  H255  1  0.83940000  0.83940000  0.83940000  1.0
  C  C256  1  0.67495000  0.31792000  0.04867000  1.0
  C  C257  1  0.66724000  0.37896000  0.03356000  1.0
  C  C258  1  0.65461000  0.39520000  0.97593000  1.0
  C  C259  1  0.64794000  0.35266000  0.93302000  1.0
  C  C260  1  0.65417000  0.29338000  0.94687000  1.0
  C  C261  1  0.66802000  0.27697000  0.00457000  1.0
  C  C262  1  0.69570000  0.29860000  0.10903000  1.0
  C  C263  1  0.82505000  0.68208000  0.54867000  1.0
  C  C264  1  0.83276000  0.62104000  0.53356000  1.0
  C  C265  1  0.84539000  0.60480000  0.47593000  1.0
  C  C266  1  0.85206000  0.64734000  0.43302000  1.0
  C  C267  1  0.84583000  0.70662000  0.44687000  1.0
  C  C268  1  0.83198000  0.72303000  0.50457000  1.0
  C  C269  1  0.80430000  0.70140000  0.60903000  1.0
  C  C270  1  0.32505000  0.81792000  0.45133000  1.0
  C  C271  1  0.33276000  0.87896000  0.46644000  1.0
  C  C272  1  0.34539000  0.89520000  0.52407000  1.0
  C  C273  1  0.35206000  0.85266000  0.56698000  1.0
  C  C274  1  0.34583000  0.79338000  0.55313000  1.0
  C  C275  1  0.33198000  0.77697000  0.49543000  1.0
  C  C276  1  0.30430000  0.79860000  0.39097000  1.0
  C  C277  1  0.17495000  0.18208000  0.95133000  1.0
  C  C278  1  0.16724000  0.12104000  0.96644000  1.0
  C  C279  1  0.15461000  0.10480000  0.02407000  1.0
  C  C280  1  0.14794000  0.14734000  0.06698000  1.0
  C  C281  1  0.15417000  0.20662000  0.05313000  1.0
  C  C282  1  0.16802000  0.22303000  0.99543000  1.0
  C  C283  1  0.19570000  0.20140000  0.89097000  1.0
  C  C284  1  0.04867000  0.67495000  0.31792000  1.0
  C  C285  1  0.03356000  0.66724000  0.37896000  1.0
  C  C286  1  0.97593000  0.65461000  0.39520000  1.0
  C  C287  1  0.93302000  0.64794000  0.35266000  1.0
  C  C288  1  0.94687000  0.65417000  0.29338000  1.0
  C  C289  1  0.00457000  0.66802000  0.27697000  1.0
  C  C290  1  0.10903000  0.69570000  0.29860000  1.0
  C  C291  1  0.54867000  0.82505000  0.68208000  1.0
  C  C292  1  0.53356000  0.83276000  0.62104000  1.0
  C  C293  1  0.47593000  0.84539000  0.60480000  1.0
  C  C294  1  0.43302000  0.85206000  0.64734000  1.0
  C  C295  1  0.44687000  0.84583000  0.70662000  1.0
  C  C296  1  0.50457000  0.83198000  0.72303000  1.0
  C  C297  1  0.60903000  0.80430000  0.70140000  1.0
  C  C298  1  0.45133000  0.32505000  0.81792000  1.0
  C  C299  1  0.46644000  0.33276000  0.87896000  1.0
  C  C300  1  0.52407000  0.34539000  0.89520000  1.0
  C  C301  1  0.56698000  0.35206000  0.85266000  1.0
  C  C302  1  0.55313000  0.34583000  0.79338000  1.0
  C  C303  1  0.49543000  0.33198000  0.77697000  1.0
  C  C304  1  0.39097000  0.30430000  0.79860000  1.0
  C  C305  1  0.95133000  0.17495000  0.18208000  1.0
  C  C306  1  0.96644000  0.16724000  0.12104000  1.0
  C  C307  1  0.02407000  0.15461000  0.10480000  1.0
  C  C308  1  0.06698000  0.14794000  0.14734000  1.0
  C  C309  1  0.05313000  0.15417000  0.20662000  1.0
  C  C310  1  0.99543000  0.16802000  0.22303000  1.0
  C  C311  1  0.89097000  0.19570000  0.20140000  1.0
  C  C312  1  0.31792000  0.04867000  0.67495000  1.0
  C  C313  1  0.37896000  0.03356000  0.66724000  1.0
  C  C314  1  0.39520000  0.97593000  0.65461000  1.0
  C  C315  1  0.35266000  0.93302000  0.64794000  1.0
  C  C316  1  0.29338000  0.94687000  0.65417000  1.0
  C  C317  1  0.27697000  0.00457000  0.66802000  1.0
  C  C318  1  0.29860000  0.10903000  0.69570000  1.0
  C  C319  1  0.68208000  0.54867000  0.82505000  1.0
  C  C320  1  0.62104000  0.53356000  0.83276000  1.0
  C  C321  1  0.60480000  0.47593000  0.84539000  1.0
  C  C322  1  0.64734000  0.43302000  0.85206000  1.0
  C  C323  1  0.70662000  0.44687000  0.84583000  1.0
  C  C324  1  0.72303000  0.50457000  0.83198000  1.0
  C  C325  1  0.70140000  0.60903000  0.80430000  1.0
  C  C326  1  0.81792000  0.45133000  0.32505000  1.0
  C  C327  1  0.87896000  0.46644000  0.33276000  1.0
  C  C328  1  0.89520000  0.52407000  0.34539000  1.0
  C  C329  1  0.85266000  0.56698000  0.35206000  1.0
  C  C330  1  0.79338000  0.55313000  0.34583000  1.0
  C  C331  1  0.77697000  0.49543000  0.33198000  1.0
  C  C332  1  0.79860000  0.39097000  0.30430000  1.0
  C  C333  1  0.18208000  0.95133000  0.17495000  1.0
  C  C334  1  0.12104000  0.96644000  0.16724000  1.0
  C  C335  1  0.10480000  0.02407000  0.15461000  1.0
  C  C336  1  0.14734000  0.06698000  0.14794000  1.0
  C  C337  1  0.20662000  0.05313000  0.15417000  1.0
  C  C338  1  0.22303000  0.99543000  0.16802000  1.0
  C  C339  1  0.20140000  0.89097000  0.19570000  1.0
  C  C340  1  0.82505000  0.18208000  0.45133000  1.0
  C  C341  1  0.83276000  0.12104000  0.46644000  1.0
  C  C342  1  0.84539000  0.10480000  0.52407000  1.0
  C  C343  1  0.85206000  0.14734000  0.56698000  1.0
  C  C344  1  0.84583000  0.20662000  0.55313000  1.0
  C  C345  1  0.83198000  0.22303000  0.49543000  1.0
  C  C346  1  0.80430000  0.20140000  0.39097000  1.0
  C  C347  1  0.67495000  0.81792000  0.95133000  1.0
  C  C348  1  0.66724000  0.87896000  0.96644000  1.0
  C  C349  1  0.65461000  0.89520000  0.02407000  1.0
  C  C350  1  0.64794000  0.85266000  0.06698000  1.0
  C  C351  1  0.65417000  0.79338000  0.05313000  1.0
  C  C352  1  0.66802000  0.77697000  0.99543000  1.0
  C  C353  1  0.69570000  0.79860000  0.89097000  1.0
  C  C354  1  0.17495000  0.68208000  0.04867000  1.0
  C  C355  1  0.16724000  0.62104000  0.03356000  1.0
  C  C356  1  0.15461000  0.60480000  0.97593000  1.0
  C  C357  1  0.14794000  0.64734000  0.93302000  1.0
  C  C358  1  0.15417000  0.70662000  0.94687000  1.0
  C  C359  1  0.16802000  0.72303000  0.00457000  1.0
  C  C360  1  0.19570000  0.70140000  0.10903000  1.0
  C  C361  1  0.32505000  0.31792000  0.54867000  1.0
  C  C362  1  0.33276000  0.37896000  0.53356000  1.0
  C  C363  1  0.34539000  0.39520000  0.47593000  1.0
  C  C364  1  0.35206000  0.35266000  0.43302000  1.0
  C  C365  1  0.34583000  0.29338000  0.44687000  1.0
  C  C366  1  0.33198000  0.27697000  0.50457000  1.0
  C  C367  1  0.30430000  0.29860000  0.60903000  1.0
  C  C368  1  0.45133000  0.82505000  0.18208000  1.0
  C  C369  1  0.46644000  0.83276000  0.12104000  1.0
  C  C370  1  0.52407000  0.84539000  0.10480000  1.0
  C  C371  1  0.56698000  0.85206000  0.14734000  1.0
  C  C372  1  0.55313000  0.84583000  0.20662000  1.0
  C  C373  1  0.49543000  0.83198000  0.22303000  1.0
  C  C374  1  0.39097000  0.80430000  0.20140000  1.0
  C  C375  1  0.95133000  0.67495000  0.81792000  1.0
  C  C376  1  0.96644000  0.66724000  0.87896000  1.0
  C  C377  1  0.02407000  0.65461000  0.89520000  1.0
  C  C378  1  0.06698000  0.64794000  0.85266000  1.0
  C  C379  1  0.05313000  0.65417000  0.79338000  1.0
  C  C380  1  0.99543000  0.66802000  0.77697000  1.0
  C  C381  1  0.89097000  0.69570000  0.79860000  1.0
  C  C382  1  0.04867000  0.17495000  0.68208000  1.0
  C  C383  1  0.03356000  0.16724000  0.62104000  1.0
  C  C384  1  0.97593000  0.15461000  0.60480000  1.0
  C  C385  1  0.93302000  0.14794000  0.64734000  1.0
  C  C386  1  0.94687000  0.15417000  0.70662000  1.0
  C  C387  1  0.00457000  0.16802000  0.72303000  1.0
  C  C388  1  0.10903000  0.19570000  0.70140000  1.0
  C  C389  1  0.54867000  0.32505000  0.31792000  1.0
  C  C390  1  0.53356000  0.33276000  0.37896000  1.0
  C  C391  1  0.47593000  0.34539000  0.39520000  1.0
  C  C392  1  0.43302000  0.35206000  0.35266000  1.0
  C  C393  1  0.44687000  0.34583000  0.29338000  1.0
  C  C394  1  0.50457000  0.33198000  0.27697000  1.0
  C  C395  1  0.60903000  0.30430000  0.29860000  1.0
  C  C396  1  0.18208000  0.45133000  0.82505000  1.0
  C  C397  1  0.12104000  0.46644000  0.83276000  1.0
  C  C398  1  0.10480000  0.52407000  0.84539000  1.0
  C  C399  1  0.14734000  0.56698000  0.85206000  1.0
  C  C400  1  0.20662000  0.55313000  0.84583000  1.0
  C  C401  1  0.22303000  0.49543000  0.83198000  1.0
  C  C402  1  0.20140000  0.39097000  0.80430000  1.0
  C  C403  1  0.81792000  0.95133000  0.67495000  1.0
  C  C404  1  0.87896000  0.96644000  0.66724000  1.0
  C  C405  1  0.89520000  0.02407000  0.65461000  1.0
  C  C406  1  0.85266000  0.06698000  0.64794000  1.0
  C  C407  1  0.79338000  0.05313000  0.65417000  1.0
  C  C408  1  0.77697000  0.99543000  0.66802000  1.0
  C  C409  1  0.79860000  0.89097000  0.69570000  1.0
  C  C410  1  0.68208000  0.04867000  0.17495000  1.0
  C  C411  1  0.62104000  0.03356000  0.16724000  1.0
  C  C412  1  0.60480000  0.97593000  0.15461000  1.0
  C  C413  1  0.64734000  0.93302000  0.14794000  1.0
  C  C414  1  0.70662000  0.94687000  0.15417000  1.0
  C  C415  1  0.72303000  0.00457000  0.16802000  1.0
  C  C416  1  0.70140000  0.10903000  0.19570000  1.0
  C  C417  1  0.31792000  0.54867000  0.32505000  1.0
  C  C418  1  0.37896000  0.53356000  0.33276000  1.0
  C  C419  1  0.39520000  0.47593000  0.34539000  1.0
  C  C420  1  0.35266000  0.43302000  0.35206000  1.0
  C  C421  1  0.29338000  0.44687000  0.34583000  1.0
  C  C422  1  0.27697000  0.50457000  0.33198000  1.0
  C  C423  1  0.29860000  0.60903000  0.30430000  1.0
  C  C424  1  0.63546000  0.36454000  0.86454000  1.0
  C  C425  1  0.86454000  0.63546000  0.36454000  1.0
  C  C426  1  0.36454000  0.86454000  0.63546000  1.0
  C  C427  1  0.13546000  0.13546000  0.13546000  1.0
  C  C428  1  0.86454000  0.13546000  0.63546000  1.0
  C  C429  1  0.63546000  0.86454000  0.13546000  1.0
  C  C430  1  0.13546000  0.63546000  0.86454000  1.0
  C  C431  1  0.36454000  0.36454000  0.36454000  1.0
  C  C432  1  0.17495000  0.81792000  0.54867000  1.0
  C  C433  1  0.16724000  0.87896000  0.53356000  1.0
  C  C434  1  0.15461000  0.89520000  0.47593000  1.0
  C  C435  1  0.14794000  0.85266000  0.43302000  1.0
  C  C436  1  0.15417000  0.79338000  0.44687000  1.0
  C  C437  1  0.16802000  0.77697000  0.50457000  1.0
  C  C438  1  0.19570000  0.79860000  0.60903000  1.0
  C  C439  1  0.32505000  0.18208000  0.04867000  1.0
  C  C440  1  0.33276000  0.12104000  0.03356000  1.0
  C  C441  1  0.34539000  0.10480000  0.97593000  1.0
  C  C442  1  0.35206000  0.14734000  0.93302000  1.0
  C  C443  1  0.34583000  0.20662000  0.94687000  1.0
  C  C444  1  0.33198000  0.22303000  0.00457000  1.0
  C  C445  1  0.30430000  0.20140000  0.10903000  1.0
  C  C446  1  0.82505000  0.31792000  0.95133000  1.0
  C  C447  1  0.83276000  0.37896000  0.96644000  1.0
  C  C448  1  0.84539000  0.39520000  0.02407000  1.0
  C  C449  1  0.85206000  0.35266000  0.06698000  1.0
  C  C450  1  0.84583000  0.29338000  0.05313000  1.0
  C  C451  1  0.83198000  0.27697000  0.99543000  1.0
  C  C452  1  0.80430000  0.29860000  0.89097000  1.0
  C  C453  1  0.67495000  0.68208000  0.45133000  1.0
  C  C454  1  0.66724000  0.62104000  0.46644000  1.0
  C  C455  1  0.65461000  0.60480000  0.52407000  1.0
  C  C456  1  0.64794000  0.64734000  0.56698000  1.0
  C  C457  1  0.65417000  0.70662000  0.55313000  1.0
  C  C458  1  0.66802000  0.72303000  0.49543000  1.0
  C  C459  1  0.69570000  0.70140000  0.39097000  1.0
  C  C460  1  0.54867000  0.17495000  0.81792000  1.0
  C  C461  1  0.53356000  0.16724000  0.87896000  1.0
  C  C462  1  0.47593000  0.15461000  0.89520000  1.0
  C  C463  1  0.43302000  0.14794000  0.85266000  1.0
  C  C464  1  0.44687000  0.15417000  0.79338000  1.0
  C  C465  1  0.50457000  0.16802000  0.77697000  1.0
  C  C466  1  0.60903000  0.19570000  0.79860000  1.0
  C  C467  1  0.04867000  0.32505000  0.18208000  1.0
  C  C468  1  0.03356000  0.33276000  0.12104000  1.0
  C  C469  1  0.97593000  0.34539000  0.10480000  1.0
  C  C470  1  0.93302000  0.35206000  0.14734000  1.0
  C  C471  1  0.94687000  0.34583000  0.20662000  1.0
  C  C472  1  0.00457000  0.33198000  0.22303000  1.0
  C  C473  1  0.10903000  0.30430000  0.20140000  1.0
  C  C474  1  0.95133000  0.82505000  0.31792000  1.0
  C  C475  1  0.96644000  0.83276000  0.37896000  1.0
  C  C476  1  0.02407000  0.84539000  0.39520000  1.0
  C  C477  1  0.06698000  0.85206000  0.35266000  1.0
  C  C478  1  0.05313000  0.84583000  0.29338000  1.0
  C  C479  1  0.99543000  0.83198000  0.27697000  1.0
  C  C480  1  0.89097000  0.80430000  0.29860000  1.0
  C  C481  1  0.45133000  0.67495000  0.68208000  1.0
  C  C482  1  0.46644000  0.66724000  0.62104000  1.0
  C  C483  1  0.52407000  0.65461000  0.60480000  1.0
  C  C484  1  0.56698000  0.64794000  0.64734000  1.0
  C  C485  1  0.55313000  0.65417000  0.70662000  1.0
  C  C486  1  0.49543000  0.66802000  0.72303000  1.0
  C  C487  1  0.39097000  0.69570000  0.70140000  1.0
  C  C488  1  0.81792000  0.54867000  0.17495000  1.0
  C  C489  1  0.87896000  0.53356000  0.16724000  1.0
  C  C490  1  0.89520000  0.47593000  0.15461000  1.0
  C  C491  1  0.85266000  0.43302000  0.14794000  1.0
  C  C492  1  0.79338000  0.44687000  0.15417000  1.0
  C  C493  1  0.77697000  0.50457000  0.16802000  1.0
  C  C494  1  0.79860000  0.60903000  0.19570000  1.0
  C  C495  1  0.18208000  0.04867000  0.32505000  1.0
  C  C496  1  0.12104000  0.03356000  0.33276000  1.0
  C  C497  1  0.10480000  0.97593000  0.34539000  1.0
  C  C498  1  0.14734000  0.93302000  0.35206000  1.0
  C  C499  1  0.20662000  0.94687000  0.34583000  1.0
  C  C500  1  0.22303000  0.00457000  0.33198000  1.0
  C  C501  1  0.20140000  0.10903000  0.30430000  1.0
  C  C502  1  0.31792000  0.95133000  0.82505000  1.0
  C  C503  1  0.37896000  0.96644000  0.83276000  1.0
  C  C504  1  0.39520000  0.02407000  0.84539000  1.0
  C  C505  1  0.35266000  0.06698000  0.85206000  1.0
  C  C506  1  0.29338000  0.05313000  0.84583000  1.0
  C  C507  1  0.27697000  0.99543000  0.83198000  1.0
  C  C508  1  0.29860000  0.89097000  0.80430000  1.0
  C  C509  1  0.68208000  0.45133000  0.67495000  1.0
  C  C510  1  0.62104000  0.46644000  0.66724000  1.0
  C  C511  1  0.60480000  0.52407000  0.65461000  1.0
  C  C512  1  0.64734000  0.56698000  0.64794000  1.0
  C  C513  1  0.70662000  0.55313000  0.65417000  1.0
  C  C514  1  0.72303000  0.49543000  0.66802000  1.0
  C  C515  1  0.70140000  0.39097000  0.69570000  1.0
  C  C516  1  0.32505000  0.68208000  0.95133000  1.0
  C  C517  1  0.33276000  0.62104000  0.96644000  1.0
  C  C518  1  0.34539000  0.60480000  0.02407000  1.0
  C  C519  1  0.35206000  0.64734000  0.06698000  1.0
  C  C520  1  0.34583000  0.70662000  0.05313000  1.0
  C  C521  1  0.33198000  0.72303000  0.99543000  1.0
  C  C522  1  0.30430000  0.70140000  0.89097000  1.0
  C  C523  1  0.17495000  0.31792000  0.45133000  1.0
  C  C524  1  0.16724000  0.37896000  0.46644000  1.0
  C  C525  1  0.15461000  0.39520000  0.52407000  1.0
  C  C526  1  0.14794000  0.35266000  0.56698000  1.0
  C  C527  1  0.15417000  0.29338000  0.55313000  1.0
  C  C528  1  0.16802000  0.27697000  0.49543000  1.0
  C  C529  1  0.19570000  0.29860000  0.39097000  1.0
  C  C530  1  0.67495000  0.18208000  0.54867000  1.0
  C  C531  1  0.66724000  0.12104000  0.53356000  1.0
  C  C532  1  0.65461000  0.10480000  0.47593000  1.0
  C  C533  1  0.64794000  0.14734000  0.43302000  1.0
  C  C534  1  0.65417000  0.20662000  0.44687000  1.0
  C  C535  1  0.66802000  0.22303000  0.50457000  1.0
  C  C536  1  0.69570000  0.20140000  0.60903000  1.0
  C  C537  1  0.82505000  0.81792000  0.04867000  1.0
  C  C538  1  0.83276000  0.87896000  0.03356000  1.0
  C  C539  1  0.84539000  0.89520000  0.97593000  1.0
  C  C540  1  0.85206000  0.85266000  0.93302000  1.0
  C  C541  1  0.84583000  0.79338000  0.94687000  1.0
  C  C542  1  0.83198000  0.77697000  0.00457000  1.0
  C  C543  1  0.80430000  0.79860000  0.10903000  1.0
  C  C544  1  0.95133000  0.32505000  0.68208000  1.0
  C  C545  1  0.96644000  0.33276000  0.62104000  1.0
  C  C546  1  0.02407000  0.34539000  0.60480000  1.0
  C  C547  1  0.06698000  0.35206000  0.64734000  1.0
  C  C548  1  0.05313000  0.34583000  0.70662000  1.0
  C  C549  1  0.99543000  0.33198000  0.72303000  1.0
  C  C550  1  0.89097000  0.30430000  0.70140000  1.0
  C  C551  1  0.45133000  0.17495000  0.31792000  1.0
  C  C552  1  0.46644000  0.16724000  0.37896000  1.0
  C  C553  1  0.52407000  0.15461000  0.39520000  1.0
  C  C554  1  0.56698000  0.14794000  0.35266000  1.0
  C  C555  1  0.55313000  0.15417000  0.29338000  1.0
  C  C556  1  0.49543000  0.16802000  0.27697000  1.0
  C  C557  1  0.39097000  0.19570000  0.29860000  1.0
  C  C558  1  0.54867000  0.67495000  0.18208000  1.0
  C  C559  1  0.53356000  0.66724000  0.12104000  1.0
  C  C560  1  0.47593000  0.65461000  0.10480000  1.0
  C  C561  1  0.43302000  0.64794000  0.14734000  1.0
  C  C562  1  0.44687000  0.65417000  0.20662000  1.0
  C  C563  1  0.50457000  0.66802000  0.22303000  1.0
  C  C564  1  0.60903000  0.69570000  0.20140000  1.0
  C  C565  1  0.04867000  0.82505000  0.81792000  1.0
  C  C566  1  0.03356000  0.83276000  0.87896000  1.0
  C  C567  1  0.97593000  0.84539000  0.89520000  1.0
  C  C568  1  0.93302000  0.85206000  0.85266000  1.0
  C  C569  1  0.94687000  0.84583000  0.79338000  1.0
  C  C570  1  0.00457000  0.83198000  0.77697000  1.0
  C  C571  1  0.10903000  0.80430000  0.79860000  1.0
  C  C572  1  0.68208000  0.95133000  0.32505000  1.0
  C  C573  1  0.62104000  0.96644000  0.33276000  1.0
  C  C574  1  0.60480000  0.02407000  0.34539000  1.0
  C  C575  1  0.64734000  0.06698000  0.35206000  1.0
  C  C576  1  0.70662000  0.05313000  0.34583000  1.0
  C  C577  1  0.72303000  0.99543000  0.33198000  1.0
  C  C578  1  0.70140000  0.89097000  0.30430000  1.0
  C  C579  1  0.31792000  0.45133000  0.17495000  1.0
  C  C580  1  0.37896000  0.46644000  0.16724000  1.0
  C  C581  1  0.39520000  0.52407000  0.15461000  1.0
  C  C582  1  0.35266000  0.56698000  0.14794000  1.0
  C  C583  1  0.29338000  0.55313000  0.15417000  1.0
  C  C584  1  0.27697000  0.49543000  0.16802000  1.0
  C  C585  1  0.29860000  0.39097000  0.19570000  1.0
  C  C586  1  0.18208000  0.54867000  0.67495000  1.0
  C  C587  1  0.12104000  0.53356000  0.66724000  1.0
  C  C588  1  0.10480000  0.47593000  0.65461000  1.0
  C  C589  1  0.14734000  0.43302000  0.64794000  1.0
  C  C590  1  0.20662000  0.44687000  0.65417000  1.0
  C  C591  1  0.22303000  0.50457000  0.66802000  1.0
  C  C592  1  0.20140000  0.60903000  0.69570000  1.0
  C  C593  1  0.81792000  0.04867000  0.82505000  1.0
  C  C594  1  0.87896000  0.03356000  0.83276000  1.0
  C  C595  1  0.89520000  0.97593000  0.84539000  1.0
  C  C596  1  0.85266000  0.93302000  0.85206000  1.0
  C  C597  1  0.79338000  0.94687000  0.84583000  1.0
  C  C598  1  0.77697000  0.00457000  0.83198000  1.0
  C  C599  1  0.79860000  0.10903000  0.80430000  1.0
  C  C600  1  0.13546000  0.86454000  0.36454000  1.0
  C  C601  1  0.36454000  0.13546000  0.86454000  1.0
  C  C602  1  0.86454000  0.36454000  0.13546000  1.0
  C  C603  1  0.63546000  0.63546000  0.63546000  1.0
  C  C604  1  0.36454000  0.63546000  0.13546000  1.0
  C  C605  1  0.13546000  0.36454000  0.63546000  1.0
  C  C606  1  0.63546000  0.13546000  0.36454000  1.0
  C  C607  1  0.86454000  0.86454000  0.86454000  1.0
  O  O608  1  0.70520000  0.24760000  0.11500000  1.0
  O  O609  1  0.69876000  0.33515000  0.15002000  1.0
  O  O610  1  0.79480000  0.75240000  0.61500000  1.0
  O  O611  1  0.80124000  0.66485000  0.65002000  1.0
  O  O612  1  0.29480000  0.74760000  0.38500000  1.0
  O  O613  1  0.30124000  0.83515000  0.34998000  1.0
  O  O614  1  0.20520000  0.25240000  0.88500000  1.0
  O  O615  1  0.19876000  0.16485000  0.84998000  1.0
  O  O616  1  0.11500000  0.70520000  0.24760000  1.0
  O  O617  1  0.15002000  0.69876000  0.33515000  1.0
  O  O618  1  0.61500000  0.79480000  0.75240000  1.0
  O  O619  1  0.65002000  0.80124000  0.66485000  1.0
  O  O620  1  0.38500000  0.29480000  0.74760000  1.0
  O  O621  1  0.34998000  0.30124000  0.83515000  1.0
  O  O622  1  0.88500000  0.20520000  0.25240000  1.0
  O  O623  1  0.84998000  0.19876000  0.16485000  1.0
  O  O624  1  0.24760000  0.11500000  0.70520000  1.0
  O  O625  1  0.33515000  0.15002000  0.69876000  1.0
  O  O626  1  0.75240000  0.61500000  0.79480000  1.0
  O  O627  1  0.66485000  0.65002000  0.80124000  1.0
  O  O628  1  0.74760000  0.38500000  0.29480000  1.0
  O  O629  1  0.83515000  0.34998000  0.30124000  1.0
  O  O630  1  0.25240000  0.88500000  0.20520000  1.0
  O  O631  1  0.16485000  0.84998000  0.19876000  1.0
  O  O632  1  0.79480000  0.25240000  0.38500000  1.0
  O  O633  1  0.80124000  0.16485000  0.34998000  1.0
  O  O634  1  0.70520000  0.74760000  0.88500000  1.0
  O  O635  1  0.69876000  0.83515000  0.84998000  1.0
  O  O636  1  0.20520000  0.75240000  0.11500000  1.0
  O  O637  1  0.19876000  0.66485000  0.15002000  1.0
  O  O638  1  0.29480000  0.24760000  0.61500000  1.0
  O  O639  1  0.30124000  0.33515000  0.65002000  1.0
  O  O640  1  0.38500000  0.79480000  0.25240000  1.0
  O  O641  1  0.34998000  0.80124000  0.16485000  1.0
  O  O642  1  0.88500000  0.70520000  0.74760000  1.0
  O  O643  1  0.84998000  0.69876000  0.83515000  1.0
  O  O644  1  0.11500000  0.20520000  0.75240000  1.0
  O  O645  1  0.15002000  0.19876000  0.66485000  1.0
  O  O646  1  0.61500000  0.29480000  0.24760000  1.0
  O  O647  1  0.65002000  0.30124000  0.33515000  1.0
  O  O648  1  0.25240000  0.38500000  0.79480000  1.0
  O  O649  1  0.16485000  0.34998000  0.80124000  1.0
  O  O650  1  0.74760000  0.88500000  0.70520000  1.0
  O  O651  1  0.83515000  0.84998000  0.69876000  1.0
  O  O652  1  0.75240000  0.11500000  0.20520000  1.0
  O  O653  1  0.66485000  0.15002000  0.19876000  1.0
  O  O654  1  0.24760000  0.61500000  0.29480000  1.0
  O  O655  1  0.33515000  0.65002000  0.30124000  1.0
  O  O656  1  0.75000000  0.25000000  0.25000000  1.0
  O  O657  1  0.75000000  0.75000000  0.75000000  1.0
  O  O658  1  0.25000000  0.75000000  0.25000000  1.0
  O  O659  1  0.25000000  0.25000000  0.75000000  1.0
  O  O660  1  0.20520000  0.74760000  0.61500000  1.0
  O  O661  1  0.19876000  0.83515000  0.65002000  1.0
  O  O662  1  0.29480000  0.25240000  0.11500000  1.0
  O  O663  1  0.30124000  0.16485000  0.15002000  1.0
  O  O664  1  0.79480000  0.24760000  0.88500000  1.0
  O  O665  1  0.80124000  0.33515000  0.84998000  1.0
  O  O666  1  0.70520000  0.75240000  0.38500000  1.0
  O  O667  1  0.69876000  0.66485000  0.34998000  1.0
  O  O668  1  0.61500000  0.20520000  0.74760000  1.0
  O  O669  1  0.65002000  0.19876000  0.83515000  1.0
  O  O670  1  0.11500000  0.29480000  0.25240000  1.0
  O  O671  1  0.15002000  0.30124000  0.16485000  1.0
  O  O672  1  0.88500000  0.79480000  0.24760000  1.0
  O  O673  1  0.84998000  0.80124000  0.33515000  1.0
  O  O674  1  0.38500000  0.70520000  0.75240000  1.0
  O  O675  1  0.34998000  0.69876000  0.66485000  1.0
  O  O676  1  0.74760000  0.61500000  0.20520000  1.0
  O  O677  1  0.83515000  0.65002000  0.19876000  1.0
  O  O678  1  0.25240000  0.11500000  0.29480000  1.0
  O  O679  1  0.16485000  0.15002000  0.30124000  1.0
  O  O680  1  0.24760000  0.88500000  0.79480000  1.0
  O  O681  1  0.33515000  0.84998000  0.80124000  1.0
  O  O682  1  0.75240000  0.38500000  0.70520000  1.0
  O  O683  1  0.66485000  0.34998000  0.69876000  1.0
  O  O684  1  0.29480000  0.75240000  0.88500000  1.0
  O  O685  1  0.30124000  0.66485000  0.84998000  1.0
  O  O686  1  0.20520000  0.24760000  0.38500000  1.0
  O  O687  1  0.19876000  0.33515000  0.34998000  1.0
  O  O688  1  0.70520000  0.25240000  0.61500000  1.0
  O  O689  1  0.69876000  0.16485000  0.65002000  1.0
  O  O690  1  0.79480000  0.74760000  0.11500000  1.0
  O  O691  1  0.80124000  0.83515000  0.15002000  1.0
  O  O692  1  0.88500000  0.29480000  0.75240000  1.0
  O  O693  1  0.84998000  0.30124000  0.66485000  1.0
  O  O694  1  0.38500000  0.20520000  0.24760000  1.0
  O  O695  1  0.34998000  0.19876000  0.33515000  1.0
  O  O696  1  0.61500000  0.70520000  0.25240000  1.0
  O  O697  1  0.65002000  0.69876000  0.16485000  1.0
  O  O698  1  0.11500000  0.79480000  0.74760000  1.0
  O  O699  1  0.15002000  0.80124000  0.83515000  1.0
  O  O700  1  0.75240000  0.88500000  0.29480000  1.0
  O  O701  1  0.66485000  0.84998000  0.30124000  1.0
  O  O702  1  0.24760000  0.38500000  0.20520000  1.0
  O  O703  1  0.33515000  0.34998000  0.19876000  1.0
  O  O704  1  0.25240000  0.61500000  0.70520000  1.0
  O  O705  1  0.16485000  0.65002000  0.69876000  1.0
  O  O706  1  0.74760000  0.11500000  0.79480000  1.0
  O  O707  1  0.83515000  0.15002000  0.80124000  1.0
  O  O708  1  0.25000000  0.25000000  0.25000000  1.0
  O  O709  1  0.25000000  0.75000000  0.75000000  1.0
  O  O710  1  0.75000000  0.25000000  0.75000000  1.0
  O  O711  1  0.75000000  0.75000000  0.25000000  1.0
