# generated using pymatgen
data_ErH24C48(NO2)4
_symmetry_space_group_name_H-M   'P 1'
_cell_length_a   9.42170000
_cell_length_b   22.14110000
_cell_length_c   26.34000000
_cell_angle_alpha   90.00000000
_cell_angle_beta   90.00000000
_cell_angle_gamma   90.00000000
_symmetry_Int_Tables_number   1
_chemical_formula_structural   ErH24C48(NO2)4
_chemical_formula_sum   'Er4 H96 C192 N16 O32'
_cell_volume   5494.70316126
_cell_formula_units_Z   4
loop_
 _symmetry_equiv_pos_site_id
 _symmetry_equiv_pos_as_xyz
  1  'x, y, z'
loop_
 _atom_site_type_symbol
 _atom_site_label
 _atom_site_symmetry_multiplicity
 _atom_site_fract_x
 _atom_site_fract_y
 _atom_site_fract_z
 _atom_site_occupancy
  Er  Er0  1  0.75000000  0.00000000  0.48619000  1.0
  Er  Er1  1  0.75000000  0.50000000  0.01381000  1.0
  Er  Er2  1  0.25000000  0.00000000  0.51381000  1.0
  Er  Er3  1  0.25000000  0.50000000  0.98619000  1.0
  H  H4  1  0.86870000  0.89050000  0.11120000  1.0
  H  H5  1  0.91120000  0.81310000  0.04460000  1.0
  H  H6  1  0.86070000  0.80650000  0.84320000  1.0
  H  H7  1  0.81520000  0.88200000  0.77690000  1.0
  H  H8  1  0.58560000  0.94140000  0.14210000  1.0
  H  H9  1  0.58450000  0.94390000  0.22990000  1.0
  H  H10  1  0.69920000  0.75480000  0.96950000  1.0
  H  H11  1  0.76220000  0.65530000  0.98220000  1.0
  H  H12  1  0.15330000  0.69280000  0.93080000  1.0
  H  H13  1  0.08780000  0.79290000  0.91630000  1.0
  H  H14  1  0.90920000  0.05990000  0.74680000  1.0
  H  H15  1  0.90770000  0.06050000  0.65870000  1.0
  H  H16  1  0.63130000  0.10950000  0.11120000  1.0
  H  H17  1  0.58880000  0.18690000  0.04460000  1.0
  H  H18  1  0.63930000  0.19350000  0.84320000  1.0
  H  H19  1  0.68480000  0.11800000  0.77690000  1.0
  H  H20  1  0.91440000  0.05860000  0.14210000  1.0
  H  H21  1  0.91550000  0.05610000  0.22990000  1.0
  H  H22  1  0.80080000  0.24520000  0.96950000  1.0
  H  H23  1  0.73780000  0.34470000  0.98220000  1.0
  H  H24  1  0.34670000  0.30720000  0.93080000  1.0
  H  H25  1  0.41220000  0.20710000  0.91630000  1.0
  H  H26  1  0.59080000  0.94010000  0.74680000  1.0
  H  H27  1  0.59230000  0.93950000  0.65870000  1.0
  H  H28  1  0.63130000  0.39050000  0.38880000  1.0
  H  H29  1  0.58880000  0.31310000  0.45540000  1.0
  H  H30  1  0.63930000  0.30650000  0.65680000  1.0
  H  H31  1  0.68480000  0.38200000  0.72310000  1.0
  H  H32  1  0.91440000  0.44140000  0.35790000  1.0
  H  H33  1  0.91550000  0.44390000  0.27010000  1.0
  H  H34  1  0.80080000  0.25480000  0.53050000  1.0
  H  H35  1  0.73780000  0.15530000  0.51780000  1.0
  H  H36  1  0.34670000  0.19280000  0.56920000  1.0
  H  H37  1  0.41220000  0.29290000  0.58370000  1.0
  H  H38  1  0.59080000  0.55990000  0.75320000  1.0
  H  H39  1  0.59230000  0.56050000  0.84130000  1.0
  H  H40  1  0.86870000  0.60950000  0.38880000  1.0
  H  H41  1  0.91120000  0.68690000  0.45540000  1.0
  H  H42  1  0.86070000  0.69350000  0.65680000  1.0
  H  H43  1  0.81520000  0.61800000  0.72310000  1.0
  H  H44  1  0.58560000  0.55860000  0.35790000  1.0
  H  H45  1  0.58450000  0.55610000  0.27010000  1.0
  H  H46  1  0.69920000  0.74520000  0.53050000  1.0
  H  H47  1  0.76220000  0.84470000  0.51780000  1.0
  H  H48  1  0.15330000  0.80720000  0.56920000  1.0
  H  H49  1  0.08780000  0.70710000  0.58370000  1.0
  H  H50  1  0.90920000  0.44010000  0.75320000  1.0
  H  H51  1  0.90770000  0.43950000  0.84130000  1.0
  H  H52  1  0.13130000  0.10950000  0.88880000  1.0
  H  H53  1  0.08880000  0.18690000  0.95540000  1.0
  H  H54  1  0.13930000  0.19350000  0.15680000  1.0
  H  H55  1  0.18480000  0.11800000  0.22310000  1.0
  H  H56  1  0.41440000  0.05860000  0.85790000  1.0
  H  H57  1  0.41550000  0.05610000  0.77010000  1.0
  H  H58  1  0.30080000  0.24520000  0.03050000  1.0
  H  H59  1  0.23780000  0.34470000  0.01780000  1.0
  H  H60  1  0.84670000  0.30720000  0.06920000  1.0
  H  H61  1  0.91220000  0.20710000  0.08370000  1.0
  H  H62  1  0.09080000  0.94010000  0.25320000  1.0
  H  H63  1  0.09230000  0.93950000  0.34130000  1.0
  H  H64  1  0.36870000  0.89050000  0.88880000  1.0
  H  H65  1  0.41120000  0.81310000  0.95540000  1.0
  H  H66  1  0.36070000  0.80650000  0.15680000  1.0
  H  H67  1  0.31520000  0.88200000  0.22310000  1.0
  H  H68  1  0.08560000  0.94140000  0.85790000  1.0
  H  H69  1  0.08450000  0.94390000  0.77010000  1.0
  H  H70  1  0.19920000  0.75480000  0.03050000  1.0
  H  H71  1  0.26220000  0.65530000  0.01780000  1.0
  H  H72  1  0.65330000  0.69280000  0.06920000  1.0
  H  H73  1  0.58780000  0.79290000  0.08370000  1.0
  H  H74  1  0.40920000  0.05990000  0.25320000  1.0
  H  H75  1  0.40770000  0.06050000  0.34130000  1.0
  H  H76  1  0.36870000  0.60950000  0.61120000  1.0
  H  H77  1  0.41120000  0.68690000  0.54460000  1.0
  H  H78  1  0.36070000  0.69350000  0.34320000  1.0
  H  H79  1  0.31520000  0.61800000  0.27690000  1.0
  H  H80  1  0.08560000  0.55860000  0.64210000  1.0
  H  H81  1  0.08450000  0.55610000  0.72990000  1.0
  H  H82  1  0.19920000  0.74520000  0.46950000  1.0
  H  H83  1  0.26220000  0.84470000  0.48220000  1.0
  H  H84  1  0.65330000  0.80720000  0.43080000  1.0
  H  H85  1  0.58780000  0.70710000  0.41630000  1.0
  H  H86  1  0.40920000  0.44010000  0.24680000  1.0
  H  H87  1  0.40770000  0.43950000  0.15870000  1.0
  H  H88  1  0.13130000  0.39050000  0.61120000  1.0
  H  H89  1  0.08880000  0.31310000  0.54460000  1.0
  H  H90  1  0.13930000  0.30650000  0.34320000  1.0
  H  H91  1  0.18480000  0.38200000  0.27690000  1.0
  H  H92  1  0.41440000  0.44140000  0.64210000  1.0
  H  H93  1  0.41550000  0.44390000  0.72990000  1.0
  H  H94  1  0.30080000  0.25480000  0.46950000  1.0
  H  H95  1  0.23780000  0.15530000  0.48220000  1.0
  H  H96  1  0.84670000  0.19280000  0.43080000  1.0
  H  H97  1  0.91220000  0.29290000  0.41630000  1.0
  H  H98  1  0.09080000  0.55990000  0.24680000  1.0
  H  H99  1  0.09230000  0.56050000  0.15870000  1.0
  C  C100  1  0.79490000  0.94710000  0.05128000  1.0
  C  C101  1  0.85180000  0.89500000  0.07586000  1.0
  C  C102  1  0.87720000  0.85310000  0.03948000  1.0
  C  C103  1  0.84280000  0.88070000  0.99167000  1.0
  C  C104  1  0.85060000  0.85066000  0.94448000  1.0
  C  C105  1  0.82370000  0.87770000  0.89722000  1.0
  C  C106  1  0.83750000  0.84780000  0.84855000  1.0
  C  C107  1  0.81180000  0.88880000  0.81251000  1.0
  C  C108  1  0.77770000  0.94540000  0.83731000  1.0
  C  C109  1  0.65270000  0.96570000  0.15960000  1.0
  C  C110  1  0.65330000  0.96680000  0.21190000  1.0
  C  C111  1  0.88850000  0.78640000  0.94590000  1.0
  C  C112  1  0.79410000  0.74290000  0.96250000  1.0
  C  C113  1  0.83020000  0.68320000  0.96960000  1.0
  C  C114  1  0.96490000  0.66450000  0.95836000  1.0
  C  C115  1  0.05990000  0.70560000  0.93910000  1.0
  C  C116  1  0.02210000  0.76580000  0.93140000  1.0
  C  C117  1  0.01110000  0.60180000  0.97050000  1.0
  C  C118  1  0.84330000  0.03520000  0.72907000  1.0
  C  C119  1  0.84280000  0.03550000  0.67655000  1.0
  C  C120  1  0.70510000  0.05290000  0.05128000  1.0
  C  C121  1  0.64820000  0.10500000  0.07586000  1.0
  C  C122  1  0.62280000  0.14690000  0.03948000  1.0
  C  C123  1  0.65720000  0.11930000  0.99167000  1.0
  C  C124  1  0.64940000  0.14934000  0.94448000  1.0
  C  C125  1  0.67630000  0.12230000  0.89722000  1.0
  C  C126  1  0.66250000  0.15220000  0.84855000  1.0
  C  C127  1  0.68820000  0.11120000  0.81251000  1.0
  C  C128  1  0.72230000  0.05460000  0.83731000  1.0
  C  C129  1  0.84730000  0.03430000  0.15960000  1.0
  C  C130  1  0.84670000  0.03320000  0.21190000  1.0
  C  C131  1  0.61150000  0.21360000  0.94590000  1.0
  C  C132  1  0.70590000  0.25710000  0.96250000  1.0
  C  C133  1  0.66980000  0.31680000  0.96960000  1.0
  C  C134  1  0.53510000  0.33550000  0.95836000  1.0
  C  C135  1  0.44010000  0.29440000  0.93910000  1.0
  C  C136  1  0.47790000  0.23420000  0.93140000  1.0
  C  C137  1  0.48890000  0.39820000  0.97050000  1.0
  C  C138  1  0.65670000  0.96480000  0.72907000  1.0
  C  C139  1  0.65720000  0.96450000  0.67655000  1.0
  C  C140  1  0.70510000  0.44710000  0.44872000  1.0
  C  C141  1  0.64820000  0.39500000  0.42414000  1.0
  C  C142  1  0.62280000  0.35310000  0.46052000  1.0
  C  C143  1  0.65720000  0.38070000  0.50833000  1.0
  C  C144  1  0.64940000  0.35066000  0.55552000  1.0
  C  C145  1  0.67630000  0.37770000  0.60278000  1.0
  C  C146  1  0.66250000  0.34780000  0.65145000  1.0
  C  C147  1  0.68820000  0.38880000  0.68749000  1.0
  C  C148  1  0.72230000  0.44540000  0.66269000  1.0
  C  C149  1  0.84730000  0.46570000  0.34040000  1.0
  C  C150  1  0.84670000  0.46680000  0.28810000  1.0
  C  C151  1  0.61150000  0.28640000  0.55410000  1.0
  C  C152  1  0.70590000  0.24290000  0.53750000  1.0
  C  C153  1  0.66980000  0.18320000  0.53040000  1.0
  C  C154  1  0.53510000  0.16450000  0.54164000  1.0
  C  C155  1  0.44010000  0.20560000  0.56090000  1.0
  C  C156  1  0.47790000  0.26580000  0.56860000  1.0
  C  C157  1  0.48890000  0.10180000  0.52950000  1.0
  C  C158  1  0.65670000  0.53520000  0.77093000  1.0
  C  C159  1  0.65720000  0.53550000  0.82345000  1.0
  C  C160  1  0.79490000  0.55290000  0.44872000  1.0
  C  C161  1  0.85180000  0.60500000  0.42414000  1.0
  C  C162  1  0.87720000  0.64690000  0.46052000  1.0
  C  C163  1  0.84280000  0.61930000  0.50833000  1.0
  C  C164  1  0.85060000  0.64934000  0.55552000  1.0
  C  C165  1  0.82370000  0.62230000  0.60278000  1.0
  C  C166  1  0.83750000  0.65220000  0.65145000  1.0
  C  C167  1  0.81180000  0.61120000  0.68749000  1.0
  C  C168  1  0.77770000  0.55460000  0.66269000  1.0
  C  C169  1  0.65270000  0.53430000  0.34040000  1.0
  C  C170  1  0.65330000  0.53320000  0.28810000  1.0
  C  C171  1  0.88850000  0.71360000  0.55410000  1.0
  C  C172  1  0.79410000  0.75710000  0.53750000  1.0
  C  C173  1  0.83020000  0.81680000  0.53040000  1.0
  C  C174  1  0.96490000  0.83550000  0.54164000  1.0
  C  C175  1  0.05990000  0.79440000  0.56090000  1.0
  C  C176  1  0.02210000  0.73420000  0.56860000  1.0
  C  C177  1  0.01110000  0.89820000  0.52950000  1.0
  C  C178  1  0.84330000  0.46480000  0.77093000  1.0
  C  C179  1  0.84280000  0.46450000  0.82345000  1.0
  C  C180  1  0.20510000  0.05290000  0.94872000  1.0
  C  C181  1  0.14820000  0.10500000  0.92414000  1.0
  C  C182  1  0.12280000  0.14690000  0.96052000  1.0
  C  C183  1  0.15720000  0.11930000  0.00833000  1.0
  C  C184  1  0.14940000  0.14934000  0.05552000  1.0
  C  C185  1  0.17630000  0.12230000  0.10278000  1.0
  C  C186  1  0.16250000  0.15220000  0.15145000  1.0
  C  C187  1  0.18820000  0.11120000  0.18749000  1.0
  C  C188  1  0.22230000  0.05460000  0.16269000  1.0
  C  C189  1  0.34730000  0.03430000  0.84040000  1.0
  C  C190  1  0.34670000  0.03320000  0.78810000  1.0
  C  C191  1  0.11150000  0.21360000  0.05410000  1.0
  C  C192  1  0.20590000  0.25710000  0.03750000  1.0
  C  C193  1  0.16980000  0.31680000  0.03040000  1.0
  C  C194  1  0.03510000  0.33550000  0.04164000  1.0
  C  C195  1  0.94010000  0.29440000  0.06090000  1.0
  C  C196  1  0.97790000  0.23420000  0.06860000  1.0
  C  C197  1  0.98890000  0.39820000  0.02950000  1.0
  C  C198  1  0.15670000  0.96480000  0.27093000  1.0
  C  C199  1  0.15720000  0.96450000  0.32345000  1.0
  C  C200  1  0.29490000  0.94710000  0.94872000  1.0
  C  C201  1  0.35180000  0.89500000  0.92414000  1.0
  C  C202  1  0.37720000  0.85310000  0.96052000  1.0
  C  C203  1  0.34280000  0.88070000  0.00833000  1.0
  C  C204  1  0.35060000  0.85066000  0.05552000  1.0
  C  C205  1  0.32370000  0.87770000  0.10278000  1.0
  C  C206  1  0.33750000  0.84780000  0.15145000  1.0
  C  C207  1  0.31180000  0.88880000  0.18749000  1.0
  C  C208  1  0.27770000  0.94540000  0.16269000  1.0
  C  C209  1  0.15270000  0.96570000  0.84040000  1.0
  C  C210  1  0.15330000  0.96680000  0.78810000  1.0
  C  C211  1  0.38850000  0.78640000  0.05410000  1.0
  C  C212  1  0.29410000  0.74290000  0.03750000  1.0
  C  C213  1  0.33020000  0.68320000  0.03040000  1.0
  C  C214  1  0.46490000  0.66450000  0.04164000  1.0
  C  C215  1  0.55990000  0.70560000  0.06090000  1.0
  C  C216  1  0.52210000  0.76580000  0.06860000  1.0
  C  C217  1  0.51110000  0.60180000  0.02950000  1.0
  C  C218  1  0.34330000  0.03520000  0.27093000  1.0
  C  C219  1  0.34280000  0.03550000  0.32345000  1.0
  C  C220  1  0.29490000  0.55290000  0.55128000  1.0
  C  C221  1  0.35180000  0.60500000  0.57586000  1.0
  C  C222  1  0.37720000  0.64690000  0.53948000  1.0
  C  C223  1  0.34280000  0.61930000  0.49167000  1.0
  C  C224  1  0.35060000  0.64934000  0.44448000  1.0
  C  C225  1  0.32370000  0.62230000  0.39722000  1.0
  C  C226  1  0.33750000  0.65220000  0.34855000  1.0
  C  C227  1  0.31180000  0.61120000  0.31251000  1.0
  C  C228  1  0.27770000  0.55460000  0.33731000  1.0
  C  C229  1  0.15270000  0.53430000  0.65960000  1.0
  C  C230  1  0.15330000  0.53320000  0.71190000  1.0
  C  C231  1  0.38850000  0.71360000  0.44590000  1.0
  C  C232  1  0.29410000  0.75710000  0.46250000  1.0
  C  C233  1  0.33020000  0.81680000  0.46960000  1.0
  C  C234  1  0.46490000  0.83550000  0.45836000  1.0
  C  C235  1  0.55990000  0.79440000  0.43910000  1.0
  C  C236  1  0.52210000  0.73420000  0.43140000  1.0
  C  C237  1  0.51110000  0.89820000  0.47050000  1.0
  C  C238  1  0.34330000  0.46480000  0.22907000  1.0
  C  C239  1  0.34280000  0.46450000  0.17655000  1.0
  C  C240  1  0.20510000  0.44710000  0.55128000  1.0
  C  C241  1  0.14820000  0.39500000  0.57586000  1.0
  C  C242  1  0.12280000  0.35310000  0.53948000  1.0
  C  C243  1  0.15720000  0.38070000  0.49167000  1.0
  C  C244  1  0.14940000  0.35066000  0.44448000  1.0
  C  C245  1  0.17630000  0.37770000  0.39722000  1.0
  C  C246  1  0.16250000  0.34780000  0.34855000  1.0
  C  C247  1  0.18820000  0.38880000  0.31251000  1.0
  C  C248  1  0.22230000  0.44540000  0.33731000  1.0
  C  C249  1  0.34730000  0.46570000  0.65960000  1.0
  C  C250  1  0.34670000  0.46680000  0.71190000  1.0
  C  C251  1  0.11150000  0.28640000  0.44590000  1.0
  C  C252  1  0.20590000  0.24290000  0.46250000  1.0
  C  C253  1  0.16980000  0.18320000  0.46960000  1.0
  C  C254  1  0.03510000  0.16450000  0.45836000  1.0
  C  C255  1  0.94010000  0.20560000  0.43910000  1.0
  C  C256  1  0.97790000  0.26580000  0.43140000  1.0
  C  C257  1  0.98890000  0.10180000  0.47050000  1.0
  C  C258  1  0.15670000  0.53520000  0.22907000  1.0
  C  C259  1  0.15720000  0.53550000  0.17655000  1.0
  C  C260  1  0.75000000  0.00000000  0.07620000  1.0
  C  C261  1  0.75000000  0.00000000  0.81270000  1.0
  C  C262  1  0.75000000  0.00000000  0.13250000  1.0
  C  C263  1  0.75000000  0.00000000  0.23860000  1.0
  C  C264  1  0.75000000  0.00000000  0.29740000  1.0
  C  C265  1  0.75000000  0.00000000  0.75590000  1.0
  C  C266  1  0.75000000  0.00000000  0.65000000  1.0
  C  C267  1  0.75000000  0.00000000  0.59291000  1.0
  C  C268  1  0.75000000  0.50000000  0.42380000  1.0
  C  C269  1  0.75000000  0.50000000  0.68730000  1.0
  C  C270  1  0.75000000  0.50000000  0.36750000  1.0
  C  C271  1  0.75000000  0.50000000  0.26140000  1.0
  C  C272  1  0.75000000  0.50000000  0.20260000  1.0
  C  C273  1  0.75000000  0.50000000  0.74410000  1.0
  C  C274  1  0.75000000  0.50000000  0.85000000  1.0
  C  C275  1  0.75000000  0.50000000  0.90709000  1.0
  C  C276  1  0.25000000  0.00000000  0.92380000  1.0
  C  C277  1  0.25000000  0.00000000  0.18730000  1.0
  C  C278  1  0.25000000  0.00000000  0.86750000  1.0
  C  C279  1  0.25000000  0.00000000  0.76140000  1.0
  C  C280  1  0.25000000  0.00000000  0.70260000  1.0
  C  C281  1  0.25000000  0.00000000  0.24410000  1.0
  C  C282  1  0.25000000  0.00000000  0.35000000  1.0
  C  C283  1  0.25000000  0.00000000  0.40709000  1.0
  C  C284  1  0.25000000  0.50000000  0.57620000  1.0
  C  C285  1  0.25000000  0.50000000  0.31270000  1.0
  C  C286  1  0.25000000  0.50000000  0.63250000  1.0
  C  C287  1  0.25000000  0.50000000  0.73860000  1.0
  C  C288  1  0.25000000  0.50000000  0.79740000  1.0
  C  C289  1  0.25000000  0.50000000  0.25590000  1.0
  C  C290  1  0.25000000  0.50000000  0.15000000  1.0
  C  C291  1  0.25000000  0.50000000  0.09291000  1.0
  N  N292  1  0.79130000  0.93775000  0.99982000  1.0
  N  N293  1  0.78690000  0.93671000  0.88881000  1.0
  N  N294  1  0.70870000  0.06225000  0.99982000  1.0
  N  N295  1  0.71310000  0.06329000  0.88881000  1.0
  N  N296  1  0.70870000  0.43775000  0.50018000  1.0
  N  N297  1  0.71310000  0.43671000  0.61119000  1.0
  N  N298  1  0.79130000  0.56225000  0.50018000  1.0
  N  N299  1  0.78690000  0.56329000  0.61119000  1.0
  N  N300  1  0.20870000  0.06225000  0.00018000  1.0
  N  N301  1  0.21310000  0.06329000  0.11119000  1.0
  N  N302  1  0.29130000  0.93775000  0.00018000  1.0
  N  N303  1  0.28690000  0.93671000  0.11119000  1.0
  N  N304  1  0.29130000  0.56225000  0.49982000  1.0
  N  N305  1  0.28690000  0.56329000  0.38881000  1.0
  N  N306  1  0.20870000  0.43775000  0.49982000  1.0
  N  N307  1  0.21310000  0.43671000  0.38881000  1.0
  O  O308  1  0.84250000  0.02960000  0.31921000  1.0
  O  O309  1  0.92180000  0.56607000  0.98915000  1.0
  O  O310  1  0.13710000  0.58774000  0.96235000  1.0
  O  O311  1  0.83390000  0.03485000  0.56916000  1.0
  O  O312  1  0.65750000  0.97040000  0.31921000  1.0
  O  O313  1  0.57820000  0.43393000  0.98915000  1.0
  O  O314  1  0.36290000  0.41226000  0.96235000  1.0
  O  O315  1  0.66610000  0.96515000  0.56916000  1.0
  O  O316  1  0.65750000  0.52960000  0.18079000  1.0
  O  O317  1  0.57820000  0.06607000  0.51085000  1.0
  O  O318  1  0.36290000  0.08774000  0.53765000  1.0
  O  O319  1  0.66610000  0.53485000  0.93084000  1.0
  O  O320  1  0.84250000  0.47040000  0.18079000  1.0
  O  O321  1  0.92180000  0.93393000  0.51085000  1.0
  O  O322  1  0.13710000  0.91226000  0.53765000  1.0
  O  O323  1  0.83390000  0.46515000  0.93084000  1.0
  O  O324  1  0.15750000  0.97040000  0.68079000  1.0
  O  O325  1  0.07820000  0.43393000  0.01085000  1.0
  O  O326  1  0.86290000  0.41226000  0.03765000  1.0
  O  O327  1  0.16610000  0.96515000  0.43084000  1.0
  O  O328  1  0.34250000  0.02960000  0.68079000  1.0
  O  O329  1  0.42180000  0.56607000  0.01085000  1.0
  O  O330  1  0.63710000  0.58774000  0.03765000  1.0
  O  O331  1  0.33390000  0.03485000  0.43084000  1.0
  O  O332  1  0.34250000  0.47040000  0.81921000  1.0
  O  O333  1  0.42180000  0.93393000  0.48915000  1.0
  O  O334  1  0.63710000  0.91226000  0.46235000  1.0
  O  O335  1  0.33390000  0.46515000  0.06916000  1.0
  O  O336  1  0.15750000  0.52960000  0.81921000  1.0
  O  O337  1  0.07820000  0.06607000  0.48915000  1.0
  O  O338  1  0.86290000  0.08774000  0.46235000  1.0
  O  O339  1  0.16610000  0.53485000  0.06916000  1.0
