# generated using pymatgen
data_Ag4H32C37S17N8(OF)3
_symmetry_space_group_name_H-M   'P 1'
_cell_length_a   26.87000000
_cell_length_b   12.31600000
_cell_length_c   21.46800000
_cell_angle_alpha   90.00000000
_cell_angle_beta   90.00000000
_cell_angle_gamma   90.00000000
_symmetry_Int_Tables_number   1
_chemical_formula_structural   Ag4H32C37S17N8(OF)3
_chemical_formula_sum   'Ag16 H128 C148 S68 N32 O12 F12'
_cell_volume   7104.42499056
_cell_formula_units_Z   4
loop_
 _symmetry_equiv_pos_site_id
 _symmetry_equiv_pos_as_xyz
  1  'x, y, z'
loop_
 _atom_site_type_symbol
 _atom_site_label
 _atom_site_symmetry_multiplicity
 _atom_site_fract_x
 _atom_site_fract_y
 _atom_site_fract_z
 _atom_site_occupancy
  Ag  Ag0  1  0.77426000  0.90506000  0.24578000  1.0
  Ag  Ag1  1  0.22574000  0.09494000  0.24578000  1.0
  Ag  Ag2  1  0.72574000  0.40506000  0.25422000  1.0
  Ag  Ag3  1  0.27426000  0.59494000  0.25422000  1.0
  Ag  Ag4  1  0.22574000  0.09494000  0.75422000  1.0
  Ag  Ag5  1  0.77426000  0.90506000  0.75422000  1.0
  Ag  Ag6  1  0.27426000  0.59494000  0.74578000  1.0
  Ag  Ag7  1  0.72574000  0.40506000  0.74578000  1.0
  Ag  Ag8  1  0.50000000  0.00000000  0.11794000  1.0
  Ag  Ag9  1  0.50000000  0.00000000  0.36794000  1.0
  Ag  Ag10  1  0.00000000  0.50000000  0.38206000  1.0
  Ag  Ag11  1  0.00000000  0.50000000  0.13206000  1.0
  Ag  Ag12  1  0.50000000  0.00000000  0.88206000  1.0
  Ag  Ag13  1  0.50000000  0.00000000  0.63206000  1.0
  Ag  Ag14  1  0.00000000  0.50000000  0.61794000  1.0
  Ag  Ag15  1  0.00000000  0.50000000  0.86794000  1.0
  H  H16  1  0.62720000  0.05870000  0.07070000  1.0
  H  H17  1  0.60280000  0.17100000  0.08260000  1.0
  H  H18  1  0.69050000  0.17590000  0.09110000  1.0
  H  H19  1  0.66400000  0.21840000  0.15050000  1.0
  H  H20  1  0.61010000  0.12470000  0.39680000  1.0
  H  H21  1  0.62180000  0.00240000  0.40580000  1.0
  H  H22  1  0.69600000  0.08030000  0.39490000  1.0
  H  H23  1  0.68620000  0.02480000  0.33120000  1.0
  H  H24  1  0.61140000  0.68770000  0.11610000  1.0
  H  H25  1  0.62410000  0.80890000  0.10440000  1.0
  H  H26  1  0.69630000  0.71940000  0.10260000  1.0
  H  H27  1  0.69580000  0.78480000  0.16430000  1.0
  H  H28  1  0.64450000  0.75560000  0.43960000  1.0
  H  H29  1  0.61910000  0.64350000  0.43110000  1.0
  H  H30  1  0.70560000  0.63770000  0.41380000  1.0
  H  H31  1  0.67510000  0.59370000  0.35780000  1.0
  H  H32  1  0.37280000  0.94130000  0.07070000  1.0
  H  H33  1  0.39720000  0.82900000  0.08260000  1.0
  H  H34  1  0.30950000  0.82410000  0.09110000  1.0
  H  H35  1  0.33600000  0.78160000  0.15050000  1.0
  H  H36  1  0.38990000  0.87530000  0.39680000  1.0
  H  H37  1  0.37820000  0.99760000  0.40580000  1.0
  H  H38  1  0.30400000  0.91970000  0.39490000  1.0
  H  H39  1  0.31380000  0.97520000  0.33120000  1.0
  H  H40  1  0.38860000  0.31230000  0.11610000  1.0
  H  H41  1  0.37590000  0.19110000  0.10440000  1.0
  H  H42  1  0.30370000  0.28060000  0.10260000  1.0
  H  H43  1  0.30420000  0.21520000  0.16430000  1.0
  H  H44  1  0.35550000  0.24440000  0.43960000  1.0
  H  H45  1  0.38090000  0.35650000  0.43110000  1.0
  H  H46  1  0.29440000  0.36230000  0.41380000  1.0
  H  H47  1  0.32490000  0.40630000  0.35780000  1.0
  H  H48  1  0.87280000  0.55870000  0.42930000  1.0
  H  H49  1  0.89720000  0.67100000  0.41740000  1.0
  H  H50  1  0.80950000  0.67590000  0.40890000  1.0
  H  H51  1  0.83600000  0.71840000  0.34950000  1.0
  H  H52  1  0.88990000  0.62470000  0.10320000  1.0
  H  H53  1  0.87820000  0.50240000  0.09420000  1.0
  H  H54  1  0.80400000  0.58030000  0.10510000  1.0
  H  H55  1  0.81380000  0.52480000  0.16880000  1.0
  H  H56  1  0.88860000  0.18770000  0.38390000  1.0
  H  H57  1  0.87590000  0.30890000  0.39560000  1.0
  H  H58  1  0.80370000  0.21940000  0.39740000  1.0
  H  H59  1  0.80420000  0.28480000  0.33570000  1.0
  H  H60  1  0.85550000  0.25560000  0.06040000  1.0
  H  H61  1  0.88090000  0.14350000  0.06890000  1.0
  H  H62  1  0.79440000  0.13770000  0.08620000  1.0
  H  H63  1  0.82490000  0.09370000  0.14220000  1.0
  H  H64  1  0.12720000  0.44130000  0.42930000  1.0
  H  H65  1  0.10280000  0.32900000  0.41740000  1.0
  H  H66  1  0.19050000  0.32410000  0.40890000  1.0
  H  H67  1  0.16400000  0.28160000  0.34950000  1.0
  H  H68  1  0.11010000  0.37530000  0.10320000  1.0
  H  H69  1  0.12180000  0.49760000  0.09420000  1.0
  H  H70  1  0.19600000  0.41970000  0.10510000  1.0
  H  H71  1  0.18620000  0.47520000  0.16880000  1.0
  H  H72  1  0.11140000  0.81230000  0.38390000  1.0
  H  H73  1  0.12410000  0.69110000  0.39560000  1.0
  H  H74  1  0.19630000  0.78060000  0.39740000  1.0
  H  H75  1  0.19580000  0.71520000  0.33570000  1.0
  H  H76  1  0.14450000  0.74440000  0.06040000  1.0
  H  H77  1  0.11910000  0.85650000  0.06890000  1.0
  H  H78  1  0.20560000  0.86230000  0.08620000  1.0
  H  H79  1  0.17510000  0.90630000  0.14220000  1.0
  H  H80  1  0.37280000  0.94130000  0.92930000  1.0
  H  H81  1  0.39720000  0.82900000  0.91740000  1.0
  H  H82  1  0.30950000  0.82410000  0.90890000  1.0
  H  H83  1  0.33600000  0.78160000  0.84950000  1.0
  H  H84  1  0.38990000  0.87530000  0.60320000  1.0
  H  H85  1  0.37820000  0.99760000  0.59420000  1.0
  H  H86  1  0.30400000  0.91970000  0.60510000  1.0
  H  H87  1  0.31380000  0.97520000  0.66880000  1.0
  H  H88  1  0.38860000  0.31230000  0.88390000  1.0
  H  H89  1  0.37590000  0.19110000  0.89560000  1.0
  H  H90  1  0.30370000  0.28060000  0.89740000  1.0
  H  H91  1  0.30420000  0.21520000  0.83570000  1.0
  H  H92  1  0.35550000  0.24440000  0.56040000  1.0
  H  H93  1  0.38090000  0.35650000  0.56890000  1.0
  H  H94  1  0.29440000  0.36230000  0.58620000  1.0
  H  H95  1  0.32490000  0.40630000  0.64220000  1.0
  H  H96  1  0.62720000  0.05870000  0.92930000  1.0
  H  H97  1  0.60280000  0.17100000  0.91740000  1.0
  H  H98  1  0.69050000  0.17590000  0.90890000  1.0
  H  H99  1  0.66400000  0.21840000  0.84950000  1.0
  H  H100  1  0.61010000  0.12470000  0.60320000  1.0
  H  H101  1  0.62180000  0.00240000  0.59420000  1.0
  H  H102  1  0.69600000  0.08030000  0.60510000  1.0
  H  H103  1  0.68620000  0.02480000  0.66880000  1.0
  H  H104  1  0.61140000  0.68770000  0.88390000  1.0
  H  H105  1  0.62410000  0.80890000  0.89560000  1.0
  H  H106  1  0.69630000  0.71940000  0.89740000  1.0
  H  H107  1  0.69580000  0.78480000  0.83570000  1.0
  H  H108  1  0.64450000  0.75560000  0.56040000  1.0
  H  H109  1  0.61910000  0.64350000  0.56890000  1.0
  H  H110  1  0.70560000  0.63770000  0.58620000  1.0
  H  H111  1  0.67510000  0.59370000  0.64220000  1.0
  H  H112  1  0.12720000  0.44130000  0.57070000  1.0
  H  H113  1  0.10280000  0.32900000  0.58260000  1.0
  H  H114  1  0.19050000  0.32410000  0.59110000  1.0
  H  H115  1  0.16400000  0.28160000  0.65050000  1.0
  H  H116  1  0.11010000  0.37530000  0.89680000  1.0
  H  H117  1  0.12180000  0.49760000  0.90580000  1.0
  H  H118  1  0.19600000  0.41970000  0.89490000  1.0
  H  H119  1  0.18620000  0.47520000  0.83120000  1.0
  H  H120  1  0.11140000  0.81230000  0.61610000  1.0
  H  H121  1  0.12410000  0.69110000  0.60440000  1.0
  H  H122  1  0.19630000  0.78060000  0.60260000  1.0
  H  H123  1  0.19580000  0.71520000  0.66430000  1.0
  H  H124  1  0.14450000  0.74440000  0.93960000  1.0
  H  H125  1  0.11910000  0.85650000  0.93110000  1.0
  H  H126  1  0.20560000  0.86230000  0.91380000  1.0
  H  H127  1  0.17510000  0.90630000  0.85780000  1.0
  H  H128  1  0.87280000  0.55870000  0.57070000  1.0
  H  H129  1  0.89720000  0.67100000  0.58260000  1.0
  H  H130  1  0.80950000  0.67590000  0.59110000  1.0
  H  H131  1  0.83600000  0.71840000  0.65050000  1.0
  H  H132  1  0.88990000  0.62470000  0.89680000  1.0
  H  H133  1  0.87820000  0.50240000  0.90580000  1.0
  H  H134  1  0.80400000  0.58030000  0.89490000  1.0
  H  H135  1  0.81380000  0.52480000  0.83120000  1.0
  H  H136  1  0.88860000  0.18770000  0.61610000  1.0
  H  H137  1  0.87590000  0.30890000  0.60440000  1.0
  H  H138  1  0.80370000  0.21940000  0.60260000  1.0
  H  H139  1  0.80420000  0.28480000  0.66430000  1.0
  H  H140  1  0.85550000  0.25560000  0.93960000  1.0
  H  H141  1  0.88090000  0.14350000  0.93110000  1.0
  H  H142  1  0.79440000  0.13770000  0.91380000  1.0
  H  H143  1  0.82490000  0.09370000  0.85780000  1.0
  C  C144  1  0.55720000  0.35410000  0.25460000  1.0
  C  C145  1  0.57190000  0.16320000  0.21280000  1.0
  C  C146  1  0.57200000  0.15340000  0.27530000  1.0
  C  C147  1  0.56230000  0.46310000  0.26050000  1.0
  C  C148  1  0.58310000  0.66390000  0.24060000  1.0
  C  C149  1  0.58350000  0.65300000  0.30250000  1.0
  C  C150  1  0.62070000  0.11290000  0.10120000  1.0
  C  C151  1  0.67030000  0.15610000  0.12560000  1.0
  C  C152  1  0.69690000  0.07590000  0.16310000  1.0
  C  C153  1  0.62240000  0.06110000  0.37710000  1.0
  C  C154  1  0.67600000  0.08140000  0.35840000  1.0
  C  C155  1  0.68350000  0.18590000  0.32660000  1.0
  C  C156  1  0.62670000  0.75060000  0.13320000  1.0
  C  C157  1  0.68100000  0.72610000  0.14230000  1.0
  C  C158  1  0.68980000  0.62510000  0.17760000  1.0
  C  C159  1  0.63560000  0.70120000  0.41030000  1.0
  C  C160  1  0.68310000  0.65670000  0.38130000  1.0
  C  C161  1  0.70730000  0.73510000  0.34050000  1.0
  C  C162  1  0.44280000  0.64590000  0.25460000  1.0
  C  C163  1  0.42810000  0.83680000  0.21280000  1.0
  C  C164  1  0.42800000  0.84660000  0.27530000  1.0
  C  C165  1  0.43770000  0.53690000  0.26050000  1.0
  C  C166  1  0.41690000  0.33610000  0.24060000  1.0
  C  C167  1  0.41650000  0.34700000  0.30250000  1.0
  C  C168  1  0.37930000  0.88710000  0.10120000  1.0
  C  C169  1  0.32970000  0.84390000  0.12560000  1.0
  C  C170  1  0.30310000  0.92410000  0.16310000  1.0
  C  C171  1  0.37760000  0.93890000  0.37710000  1.0
  C  C172  1  0.32400000  0.91860000  0.35840000  1.0
  C  C173  1  0.31650000  0.81410000  0.32660000  1.0
  C  C174  1  0.37330000  0.24940000  0.13320000  1.0
  C  C175  1  0.31900000  0.27390000  0.14230000  1.0
  C  C176  1  0.31020000  0.37490000  0.17760000  1.0
  C  C177  1  0.36440000  0.29880000  0.41030000  1.0
  C  C178  1  0.31690000  0.34330000  0.38130000  1.0
  C  C179  1  0.29270000  0.26490000  0.34050000  1.0
  C  C180  1  0.94280000  0.85410000  0.24540000  1.0
  C  C181  1  0.92810000  0.66320000  0.28720000  1.0
  C  C182  1  0.92800000  0.65340000  0.22470000  1.0
  C  C183  1  0.93770000  0.96310000  0.23950000  1.0
  C  C184  1  0.91690000  0.16390000  0.25940000  1.0
  C  C185  1  0.91650000  0.15300000  0.19750000  1.0
  C  C186  1  0.87930000  0.61290000  0.39880000  1.0
  C  C187  1  0.82970000  0.65610000  0.37440000  1.0
  C  C188  1  0.80310000  0.57590000  0.33690000  1.0
  C  C189  1  0.87760000  0.56110000  0.12290000  1.0
  C  C190  1  0.82400000  0.58140000  0.14160000  1.0
  C  C191  1  0.81650000  0.68590000  0.17340000  1.0
  C  C192  1  0.87330000  0.25060000  0.36680000  1.0
  C  C193  1  0.81900000  0.22610000  0.35770000  1.0
  C  C194  1  0.81020000  0.12510000  0.32240000  1.0
  C  C195  1  0.86440000  0.20120000  0.08970000  1.0
  C  C196  1  0.81690000  0.15670000  0.11870000  1.0
  C  C197  1  0.79270000  0.23510000  0.15950000  1.0
  C  C198  1  0.05720000  0.14590000  0.24540000  1.0
  C  C199  1  0.07190000  0.33680000  0.28720000  1.0
  C  C200  1  0.07200000  0.34660000  0.22470000  1.0
  C  C201  1  0.06230000  0.03690000  0.23950000  1.0
  C  C202  1  0.08310000  0.83610000  0.25940000  1.0
  C  C203  1  0.08350000  0.84700000  0.19750000  1.0
  C  C204  1  0.12070000  0.38710000  0.39880000  1.0
  C  C205  1  0.17030000  0.34390000  0.37440000  1.0
  C  C206  1  0.19690000  0.42410000  0.33690000  1.0
  C  C207  1  0.12240000  0.43890000  0.12290000  1.0
  C  C208  1  0.17600000  0.41860000  0.14160000  1.0
  C  C209  1  0.18350000  0.31410000  0.17340000  1.0
  C  C210  1  0.12670000  0.74940000  0.36680000  1.0
  C  C211  1  0.18100000  0.77390000  0.35770000  1.0
  C  C212  1  0.18980000  0.87490000  0.32240000  1.0
  C  C213  1  0.13560000  0.79880000  0.08970000  1.0
  C  C214  1  0.18310000  0.84330000  0.11870000  1.0
  C  C215  1  0.20730000  0.76490000  0.15950000  1.0
  C  C216  1  0.44280000  0.64590000  0.74540000  1.0
  C  C217  1  0.42810000  0.83680000  0.78720000  1.0
  C  C218  1  0.42800000  0.84660000  0.72470000  1.0
  C  C219  1  0.43770000  0.53690000  0.73950000  1.0
  C  C220  1  0.41690000  0.33610000  0.75940000  1.0
  C  C221  1  0.41650000  0.34700000  0.69750000  1.0
  C  C222  1  0.37930000  0.88710000  0.89880000  1.0
  C  C223  1  0.32970000  0.84390000  0.87440000  1.0
  C  C224  1  0.30310000  0.92410000  0.83690000  1.0
  C  C225  1  0.37760000  0.93890000  0.62290000  1.0
  C  C226  1  0.32400000  0.91860000  0.64160000  1.0
  C  C227  1  0.31650000  0.81410000  0.67340000  1.0
  C  C228  1  0.37330000  0.24940000  0.86680000  1.0
  C  C229  1  0.31900000  0.27390000  0.85770000  1.0
  C  C230  1  0.31020000  0.37490000  0.82240000  1.0
  C  C231  1  0.36440000  0.29880000  0.58970000  1.0
  C  C232  1  0.31690000  0.34330000  0.61870000  1.0
  C  C233  1  0.29270000  0.26490000  0.65950000  1.0
  C  C234  1  0.55720000  0.35410000  0.74540000  1.0
  C  C235  1  0.57190000  0.16320000  0.78720000  1.0
  C  C236  1  0.57200000  0.15340000  0.72470000  1.0
  C  C237  1  0.56230000  0.46310000  0.73950000  1.0
  C  C238  1  0.58310000  0.66390000  0.75940000  1.0
  C  C239  1  0.58350000  0.65300000  0.69750000  1.0
  C  C240  1  0.62070000  0.11290000  0.89880000  1.0
  C  C241  1  0.67030000  0.15610000  0.87440000  1.0
  C  C242  1  0.69690000  0.07590000  0.83690000  1.0
  C  C243  1  0.62240000  0.06110000  0.62290000  1.0
  C  C244  1  0.67600000  0.08140000  0.64160000  1.0
  C  C245  1  0.68350000  0.18590000  0.67340000  1.0
  C  C246  1  0.62670000  0.75060000  0.86680000  1.0
  C  C247  1  0.68100000  0.72610000  0.85770000  1.0
  C  C248  1  0.68980000  0.62510000  0.82240000  1.0
  C  C249  1  0.63560000  0.70120000  0.58970000  1.0
  C  C250  1  0.68310000  0.65670000  0.61870000  1.0
  C  C251  1  0.70730000  0.73510000  0.65950000  1.0
  C  C252  1  0.05720000  0.14590000  0.75460000  1.0
  C  C253  1  0.07190000  0.33680000  0.71280000  1.0
  C  C254  1  0.07200000  0.34660000  0.77530000  1.0
  C  C255  1  0.06230000  0.03690000  0.76050000  1.0
  C  C256  1  0.08310000  0.83610000  0.74060000  1.0
  C  C257  1  0.08350000  0.84700000  0.80250000  1.0
  C  C258  1  0.12070000  0.38710000  0.60120000  1.0
  C  C259  1  0.17030000  0.34390000  0.62560000  1.0
  C  C260  1  0.19690000  0.42410000  0.66310000  1.0
  C  C261  1  0.12240000  0.43890000  0.87710000  1.0
  C  C262  1  0.17600000  0.41860000  0.85840000  1.0
  C  C263  1  0.18350000  0.31410000  0.82660000  1.0
  C  C264  1  0.12670000  0.74940000  0.63320000  1.0
  C  C265  1  0.18100000  0.77390000  0.64230000  1.0
  C  C266  1  0.18980000  0.87490000  0.67760000  1.0
  C  C267  1  0.13560000  0.79880000  0.91030000  1.0
  C  C268  1  0.18310000  0.84330000  0.88130000  1.0
  C  C269  1  0.20730000  0.76490000  0.84050000  1.0
  C  C270  1  0.94280000  0.85410000  0.75460000  1.0
  C  C271  1  0.92810000  0.66320000  0.71280000  1.0
  C  C272  1  0.92800000  0.65340000  0.77530000  1.0
  C  C273  1  0.93770000  0.96310000  0.76050000  1.0
  C  C274  1  0.91690000  0.16390000  0.74060000  1.0
  C  C275  1  0.91650000  0.15300000  0.80250000  1.0
  C  C276  1  0.87930000  0.61290000  0.60120000  1.0
  C  C277  1  0.82970000  0.65610000  0.62560000  1.0
  C  C278  1  0.80310000  0.57590000  0.66310000  1.0
  C  C279  1  0.87760000  0.56110000  0.87710000  1.0
  C  C280  1  0.82400000  0.58140000  0.85840000  1.0
  C  C281  1  0.81650000  0.68590000  0.82660000  1.0
  C  C282  1  0.87330000  0.25060000  0.63320000  1.0
  C  C283  1  0.81900000  0.22610000  0.64230000  1.0
  C  C284  1  0.81020000  0.12510000  0.67760000  1.0
  C  C285  1  0.86440000  0.20120000  0.91030000  1.0
  C  C286  1  0.81690000  0.15670000  0.88130000  1.0
  C  C287  1  0.79270000  0.23510000  0.84050000  1.0
  C  C288  1  0.51150000  0.31400000  0.50000000  1.0
  C  C289  1  0.48850000  0.68600000  0.50000000  1.0
  C  C290  1  0.98850000  0.81400000  0.00000000  1.0
  C  C291  1  0.01150000  0.18600000  0.00000000  1.0
  S  S292  1  0.55127000  0.26610000  0.31858000  1.0
  S  S293  1  0.55258000  0.28850000  0.18219000  1.0
  S  S294  1  0.56247000  0.55140000  0.19672000  1.0
  S  S295  1  0.56417000  0.52810000  0.33315000  1.0
  S  S296  1  0.58253000  0.05390000  0.16245000  1.0
  S  S297  1  0.58168000  0.02790000  0.31248000  1.0
  S  S298  1  0.59267000  0.78800000  0.20267000  1.0
  S  S299  1  0.59283000  0.76000000  0.35476000  1.0
  S  S300  1  0.44873000  0.73390000  0.31858000  1.0
  S  S301  1  0.44742000  0.71150000  0.18219000  1.0
  S  S302  1  0.43753000  0.44860000  0.19672000  1.0
  S  S303  1  0.43583000  0.47190000  0.33315000  1.0
  S  S304  1  0.41747000  0.94610000  0.16245000  1.0
  S  S305  1  0.41832000  0.97210000  0.31248000  1.0
  S  S306  1  0.40733000  0.21200000  0.20267000  1.0
  S  S307  1  0.40717000  0.24000000  0.35476000  1.0
  S  S308  1  0.94873000  0.76610000  0.18142000  1.0
  S  S309  1  0.94742000  0.78850000  0.31781000  1.0
  S  S310  1  0.93753000  0.05140000  0.30328000  1.0
  S  S311  1  0.93583000  0.02810000  0.16685000  1.0
  S  S312  1  0.91747000  0.55390000  0.33755000  1.0
  S  S313  1  0.91832000  0.52790000  0.18752000  1.0
  S  S314  1  0.90733000  0.28800000  0.29733000  1.0
  S  S315  1  0.90717000  0.26000000  0.14524000  1.0
  S  S316  1  0.05127000  0.23390000  0.18142000  1.0
  S  S317  1  0.05258000  0.21150000  0.31781000  1.0
  S  S318  1  0.06247000  0.94860000  0.30328000  1.0
  S  S319  1  0.06417000  0.97190000  0.16685000  1.0
  S  S320  1  0.08253000  0.44610000  0.33755000  1.0
  S  S321  1  0.08168000  0.47210000  0.18752000  1.0
  S  S322  1  0.09267000  0.71200000  0.29733000  1.0
  S  S323  1  0.09283000  0.74000000  0.14524000  1.0
  S  S324  1  0.44873000  0.73390000  0.68142000  1.0
  S  S325  1  0.44742000  0.71150000  0.81781000  1.0
  S  S326  1  0.43753000  0.44860000  0.80328000  1.0
  S  S327  1  0.43583000  0.47190000  0.66685000  1.0
  S  S328  1  0.41747000  0.94610000  0.83755000  1.0
  S  S329  1  0.41832000  0.97210000  0.68752000  1.0
  S  S330  1  0.40733000  0.21200000  0.79733000  1.0
  S  S331  1  0.40717000  0.24000000  0.64524000  1.0
  S  S332  1  0.55127000  0.26610000  0.68142000  1.0
  S  S333  1  0.55258000  0.28850000  0.81781000  1.0
  S  S334  1  0.56247000  0.55140000  0.80328000  1.0
  S  S335  1  0.56417000  0.52810000  0.66685000  1.0
  S  S336  1  0.58253000  0.05390000  0.83755000  1.0
  S  S337  1  0.58168000  0.02790000  0.68752000  1.0
  S  S338  1  0.59267000  0.78800000  0.79733000  1.0
  S  S339  1  0.59283000  0.76000000  0.64524000  1.0
  S  S340  1  0.05127000  0.23390000  0.81858000  1.0
  S  S341  1  0.05258000  0.21150000  0.68219000  1.0
  S  S342  1  0.06247000  0.94860000  0.69672000  1.0
  S  S343  1  0.06417000  0.97190000  0.83315000  1.0
  S  S344  1  0.08253000  0.44610000  0.66245000  1.0
  S  S345  1  0.08168000  0.47210000  0.81248000  1.0
  S  S346  1  0.09267000  0.71200000  0.70267000  1.0
  S  S347  1  0.09283000  0.74000000  0.85476000  1.0
  S  S348  1  0.94873000  0.76610000  0.81858000  1.0
  S  S349  1  0.94742000  0.78850000  0.68219000  1.0
  S  S350  1  0.93753000  0.05140000  0.69672000  1.0
  S  S351  1  0.93583000  0.02810000  0.83315000  1.0
  S  S352  1  0.91747000  0.55390000  0.66245000  1.0
  S  S353  1  0.91832000  0.52790000  0.81248000  1.0
  S  S354  1  0.90733000  0.28800000  0.70267000  1.0
  S  S355  1  0.90717000  0.26000000  0.85476000  1.0
  S  S356  1  0.49667000  0.16870000  0.50000000  1.0
  S  S357  1  0.50333000  0.83130000  0.50000000  1.0
  S  S358  1  0.00333000  0.66870000  0.00000000  1.0
  S  S359  1  0.99667000  0.33130000  0.00000000  1.0
  N  N360  1  0.71700000  0.01280000  0.19210000  1.0
  N  N361  1  0.69030000  0.26670000  0.30360000  1.0
  N  N362  1  0.69640000  0.54840000  0.20410000  1.0
  N  N363  1  0.72550000  0.79410000  0.30760000  1.0
  N  N364  1  0.28300000  0.98720000  0.19210000  1.0
  N  N365  1  0.30970000  0.73330000  0.30360000  1.0
  N  N366  1  0.30360000  0.45160000  0.20410000  1.0
  N  N367  1  0.27450000  0.20590000  0.30760000  1.0
  N  N368  1  0.78300000  0.51280000  0.30790000  1.0
  N  N369  1  0.80970000  0.76670000  0.19640000  1.0
  N  N370  1  0.80360000  0.04840000  0.29590000  1.0
  N  N371  1  0.77450000  0.29410000  0.19240000  1.0
  N  N372  1  0.21700000  0.48720000  0.30790000  1.0
  N  N373  1  0.19030000  0.23330000  0.19640000  1.0
  N  N374  1  0.19640000  0.95160000  0.29590000  1.0
  N  N375  1  0.22550000  0.70590000  0.19240000  1.0
  N  N376  1  0.28300000  0.98720000  0.80790000  1.0
  N  N377  1  0.30970000  0.73330000  0.69640000  1.0
  N  N378  1  0.30360000  0.45160000  0.79590000  1.0
  N  N379  1  0.27450000  0.20590000  0.69240000  1.0
  N  N380  1  0.71700000  0.01280000  0.80790000  1.0
  N  N381  1  0.69030000  0.26670000  0.69640000  1.0
  N  N382  1  0.69640000  0.54840000  0.79590000  1.0
  N  N383  1  0.72550000  0.79410000  0.69240000  1.0
  N  N384  1  0.21700000  0.48720000  0.69210000  1.0
  N  N385  1  0.19030000  0.23330000  0.80360000  1.0
  N  N386  1  0.19640000  0.95160000  0.70410000  1.0
  N  N387  1  0.22550000  0.70590000  0.80760000  1.0
  N  N388  1  0.78300000  0.51280000  0.69210000  1.0
  N  N389  1  0.80970000  0.76670000  0.80360000  1.0
  N  N390  1  0.80360000  0.04840000  0.70410000  1.0
  N  N391  1  0.77450000  0.29410000  0.80760000  1.0
  O  O392  1  0.52040000  0.13170000  0.44360000  1.0
  O  O393  1  0.47960000  0.86830000  0.44360000  1.0
  O  O394  1  0.97960000  0.63170000  0.05640000  1.0
  O  O395  1  0.02040000  0.36830000  0.05640000  1.0
  O  O396  1  0.47960000  0.86830000  0.55640000  1.0
  O  O397  1  0.52040000  0.13170000  0.55640000  1.0
  O  O398  1  0.02040000  0.36830000  0.94360000  1.0
  O  O399  1  0.97960000  0.63170000  0.94360000  1.0
  O  O400  1  0.44330000  0.16240000  0.50000000  1.0
  O  O401  1  0.55670000  0.83760000  0.50000000  1.0
  O  O402  1  0.05670000  0.66240000  0.00000000  1.0
  O  O403  1  0.94330000  0.33760000  0.00000000  1.0
  F  F404  1  0.49450000  0.36240000  0.45000000  1.0
  F  F405  1  0.50550000  0.63760000  0.45000000  1.0
  F  F406  1  0.00550000  0.86240000  0.05000000  1.0
  F  F407  1  0.99450000  0.13760000  0.05000000  1.0
  F  F408  1  0.50550000  0.63760000  0.55000000  1.0
  F  F409  1  0.49450000  0.36240000  0.55000000  1.0
  F  F410  1  0.99450000  0.13760000  0.95000000  1.0
  F  F411  1  0.00550000  0.86240000  0.95000000  1.0
  F  F412  1  0.56050000  0.32790000  0.50000000  1.0
  F  F413  1  0.43950000  0.67210000  0.50000000  1.0
  F  F414  1  0.93950000  0.82790000  0.00000000  1.0
  F  F415  1  0.06050000  0.17210000  0.00000000  1.0
