# generated using pymatgen
data_Er2H6(C7O4)3
_symmetry_space_group_name_H-M   'P 1'
_cell_length_a   9.84420000
_cell_length_b   10.87950000
_cell_length_c   29.22880000
_cell_angle_alpha   90.00000000
_cell_angle_beta   90.00000000
_cell_angle_gamma   92.17700000
_symmetry_Int_Tables_number   1
_chemical_formula_structural   Er2H6(C7O4)3
_chemical_formula_sum   'Er8 H24 C84 O48'
_cell_volume   3128.14433495
_cell_formula_units_Z   4
loop_
 _symmetry_equiv_pos_site_id
 _symmetry_equiv_pos_as_xyz
  1  'x, y, z'
loop_
 _atom_site_type_symbol
 _atom_site_label
 _atom_site_symmetry_multiplicity
 _atom_site_fract_x
 _atom_site_fract_y
 _atom_site_fract_z
 _atom_site_occupancy
  Er  Er0  1  0.54517000  0.04156000  0.91851000  1.0
  Er  Er1  1  0.54026000  0.26342000  0.74846000  1.0
  Er  Er2  1  0.45483000  0.45844000  0.41851000  1.0
  Er  Er3  1  0.45974000  0.23658000  0.24846000  1.0
  Er  Er4  1  0.45483000  0.95844000  0.08149000  1.0
  Er  Er5  1  0.45974000  0.73658000  0.25154000  1.0
  Er  Er6  1  0.54517000  0.54156000  0.58149000  1.0
  Er  Er7  1  0.54026000  0.76342000  0.75154000  1.0
  H  H8  1  0.86590000  0.89320000  0.71320000  1.0
  H  H9  1  0.09400000  0.84510000  0.70930000  1.0
  H  H10  1  0.22000000  0.16260000  0.89300000  1.0
  H  H11  1  0.98670000  0.16450000  0.90760000  1.0
  H  H12  1  0.94310000  0.68940000  0.98260000  1.0
  H  H13  1  0.17520000  0.73540000  0.98720000  1.0
  H  H14  1  0.13410000  0.60680000  0.21320000  1.0
  H  H15  1  0.90600000  0.65490000  0.20930000  1.0
  H  H16  1  0.78000000  0.33740000  0.39300000  1.0
  H  H17  1  0.01330000  0.33550000  0.40760000  1.0
  H  H18  1  0.05690000  0.81060000  0.48260000  1.0
  H  H19  1  0.82480000  0.76460000  0.48720000  1.0
  H  H20  1  0.13410000  0.10680000  0.28680000  1.0
  H  H21  1  0.90600000  0.15490000  0.29070000  1.0
  H  H22  1  0.78000000  0.83740000  0.10700000  1.0
  H  H23  1  0.01330000  0.83550000  0.09240000  1.0
  H  H24  1  0.05690000  0.31060000  0.01740000  1.0
  H  H25  1  0.82480000  0.26460000  0.01280000  1.0
  H  H26  1  0.86590000  0.39320000  0.78680000  1.0
  H  H27  1  0.09400000  0.34510000  0.79070000  1.0
  H  H28  1  0.22000000  0.66260000  0.60700000  1.0
  H  H29  1  0.98670000  0.66450000  0.59240000  1.0
  H  H30  1  0.94310000  0.18940000  0.51740000  1.0
  H  H31  1  0.17520000  0.23540000  0.51280000  1.0
  C  C32  1  0.92480000  0.08740000  0.84871000  1.0
  C  C33  1  0.96910000  0.03230000  0.80702000  1.0
  C  C34  1  0.87900000  0.99050000  0.77145000  1.0
  C  C35  1  0.92600000  0.92200000  0.73567000  1.0
  C  C36  1  0.06450000  0.89500000  0.73282000  1.0
  C  C37  1  0.15700000  0.94140000  0.76429000  1.0
  C  C38  1  0.11190000  0.01680000  0.80113000  1.0
  C  C39  1  0.20540000  0.07510000  0.83274000  1.0
  C  C40  1  0.15870000  0.12850000  0.87188000  1.0
  C  C41  1  0.01730000  0.13170000  0.88026000  1.0
  C  C42  1  0.78110000  0.07910000  0.86496000  1.0
  C  C43  1  0.73300000  0.02910000  0.76708000  1.0
  C  C44  1  0.35350000  0.09910000  0.82227000  1.0
  C  C45  1  0.29820000  0.89530000  0.76138000  1.0
  C  C46  1  0.88160000  0.86130000  0.98931000  1.0
  C  C47  1  0.97380000  0.77060000  0.98633000  1.0
  C  C48  1  0.11410000  0.79840000  0.98888000  1.0
  C  C49  1  0.16140000  0.91690000  0.99382000  1.0
  C  C50  1  0.92820000  0.98580000  0.99883000  1.0
  C  C51  1  0.73700000  0.82710000  0.97647000  1.0
  C  C52  1  0.31120000  0.94080000  0.98583000  1.0
  C  C53  1  0.07520000  0.41260000  0.34871000  1.0
  C  C54  1  0.03090000  0.46770000  0.30702000  1.0
  C  C55  1  0.12100000  0.50950000  0.27145000  1.0
  C  C56  1  0.07400000  0.57800000  0.23567000  1.0
  C  C57  1  0.93550000  0.60500000  0.23282000  1.0
  C  C58  1  0.84300000  0.55860000  0.26429000  1.0
  C  C59  1  0.88810000  0.48320000  0.30113000  1.0
  C  C60  1  0.79460000  0.42490000  0.33274000  1.0
  C  C61  1  0.84130000  0.37150000  0.37188000  1.0
  C  C62  1  0.98270000  0.36830000  0.38026000  1.0
  C  C63  1  0.21890000  0.42090000  0.36496000  1.0
  C  C64  1  0.26700000  0.47090000  0.26708000  1.0
  C  C65  1  0.64650000  0.40090000  0.32227000  1.0
  C  C66  1  0.70180000  0.60470000  0.26138000  1.0
  C  C67  1  0.11840000  0.63870000  0.48931000  1.0
  C  C68  1  0.02620000  0.72940000  0.48633000  1.0
  C  C69  1  0.88590000  0.70160000  0.48888000  1.0
  C  C70  1  0.83860000  0.58310000  0.49382000  1.0
  C  C71  1  0.07180000  0.51420000  0.49883000  1.0
  C  C72  1  0.26300000  0.67290000  0.47647000  1.0
  C  C73  1  0.68880000  0.55920000  0.48583000  1.0
  C  C74  1  0.07520000  0.91260000  0.15129000  1.0
  C  C75  1  0.03090000  0.96770000  0.19298000  1.0
  C  C76  1  0.12100000  0.00950000  0.22855000  1.0
  C  C77  1  0.07400000  0.07800000  0.26433000  1.0
  C  C78  1  0.93550000  0.10500000  0.26718000  1.0
  C  C79  1  0.84300000  0.05860000  0.23571000  1.0
  C  C80  1  0.88810000  0.98320000  0.19887000  1.0
  C  C81  1  0.79460000  0.92490000  0.16726000  1.0
  C  C82  1  0.84130000  0.87150000  0.12812000  1.0
  C  C83  1  0.98270000  0.86830000  0.11974000  1.0
  C  C84  1  0.21890000  0.92090000  0.13504000  1.0
  C  C85  1  0.26700000  0.97090000  0.23292000  1.0
  C  C86  1  0.64650000  0.90090000  0.17773000  1.0
  C  C87  1  0.70180000  0.10470000  0.23862000  1.0
  C  C88  1  0.11840000  0.13870000  0.01069000  1.0
  C  C89  1  0.02620000  0.22940000  0.01367000  1.0
  C  C90  1  0.88590000  0.20160000  0.01112000  1.0
  C  C91  1  0.83860000  0.08310000  0.00618000  1.0
  C  C92  1  0.07180000  0.01420000  0.00117000  1.0
  C  C93  1  0.26300000  0.17290000  0.02353000  1.0
  C  C94  1  0.68880000  0.05920000  0.01417000  1.0
  C  C95  1  0.92480000  0.58740000  0.65129000  1.0
  C  C96  1  0.96910000  0.53230000  0.69298000  1.0
  C  C97  1  0.87900000  0.49050000  0.72855000  1.0
  C  C98  1  0.92600000  0.42200000  0.76433000  1.0
  C  C99  1  0.06450000  0.39500000  0.76718000  1.0
  C  C100  1  0.15700000  0.44140000  0.73571000  1.0
  C  C101  1  0.11190000  0.51680000  0.69887000  1.0
  C  C102  1  0.20540000  0.57510000  0.66726000  1.0
  C  C103  1  0.15870000  0.62850000  0.62812000  1.0
  C  C104  1  0.01730000  0.63170000  0.61974000  1.0
  C  C105  1  0.78110000  0.57910000  0.63504000  1.0
  C  C106  1  0.73300000  0.52910000  0.73292000  1.0
  C  C107  1  0.35350000  0.59910000  0.67773000  1.0
  C  C108  1  0.29820000  0.39530000  0.73862000  1.0
  C  C109  1  0.88160000  0.36130000  0.51069000  1.0
  C  C110  1  0.97380000  0.27060000  0.51367000  1.0
  C  C111  1  0.11410000  0.29840000  0.51112000  1.0
  C  C112  1  0.16140000  0.41690000  0.50618000  1.0
  C  C113  1  0.92820000  0.48580000  0.50117000  1.0
  C  C114  1  0.73700000  0.32710000  0.52353000  1.0
  C  C115  1  0.31120000  0.44080000  0.51417000  1.0
  O  O116  1  0.71210000  0.14070000  0.77251000  1.0
  O  O117  1  0.64360000  0.95070000  0.75494000  1.0
  O  O118  1  0.70790000  0.98440000  0.85831000  1.0
  O  O119  1  0.73590000  0.16420000  0.89045000  1.0
  O  O120  1  0.38390000  0.13040000  0.78221000  1.0
  O  O121  1  0.43780000  0.09630000  0.85442000  1.0
  O  O122  1  0.35540000  0.88870000  0.72276000  1.0
  O  O123  1  0.35540000  0.85400000  0.79630000  1.0
  O  O124  1  0.67760000  0.89930000  0.94987000  1.0
  O  O125  1  0.68540000  0.72740000  0.99068000  1.0
  O  O126  1  0.39400000  0.88380000  0.00988000  1.0
  O  O127  1  0.34140000  0.01410000  0.95385000  1.0
  O  O128  1  0.28790000  0.35930000  0.27251000  1.0
  O  O129  1  0.35640000  0.54930000  0.25494000  1.0
  O  O130  1  0.29210000  0.51560000  0.35831000  1.0
  O  O131  1  0.26410000  0.33580000  0.39045000  1.0
  O  O132  1  0.61610000  0.36960000  0.28221000  1.0
  O  O133  1  0.56220000  0.40370000  0.35442000  1.0
  O  O134  1  0.64460000  0.61130000  0.22276000  1.0
  O  O135  1  0.64460000  0.64600000  0.29630000  1.0
  O  O136  1  0.32240000  0.60070000  0.44987000  1.0
  O  O137  1  0.31460000  0.77260000  0.49068000  1.0
  O  O138  1  0.60600000  0.61620000  0.50988000  1.0
  O  O139  1  0.65860000  0.48590000  0.45385000  1.0
  O  O140  1  0.28790000  0.85930000  0.22749000  1.0
  O  O141  1  0.35640000  0.04930000  0.24506000  1.0
  O  O142  1  0.29210000  0.01560000  0.14169000  1.0
  O  O143  1  0.26410000  0.83580000  0.10955000  1.0
  O  O144  1  0.61610000  0.86960000  0.21779000  1.0
  O  O145  1  0.56220000  0.90370000  0.14558000  1.0
  O  O146  1  0.64460000  0.11130000  0.27724000  1.0
  O  O147  1  0.64460000  0.14600000  0.20370000  1.0
  O  O148  1  0.32240000  0.10070000  0.05013000  1.0
  O  O149  1  0.31460000  0.27260000  0.00932000  1.0
  O  O150  1  0.60600000  0.11620000  0.99012000  1.0
  O  O151  1  0.65860000  0.98590000  0.04615000  1.0
  O  O152  1  0.71210000  0.64070000  0.72749000  1.0
  O  O153  1  0.64360000  0.45070000  0.74506000  1.0
  O  O154  1  0.70790000  0.48440000  0.64169000  1.0
  O  O155  1  0.73590000  0.66420000  0.60955000  1.0
  O  O156  1  0.38390000  0.63040000  0.71779000  1.0
  O  O157  1  0.43780000  0.59630000  0.64558000  1.0
  O  O158  1  0.35540000  0.38870000  0.77724000  1.0
  O  O159  1  0.35540000  0.35400000  0.70370000  1.0
  O  O160  1  0.67760000  0.39930000  0.55013000  1.0
  O  O161  1  0.68540000  0.22740000  0.50932000  1.0
  O  O162  1  0.39400000  0.38380000  0.49012000  1.0
  O  O163  1  0.34140000  0.51410000  0.54615000  1.0
