# generated using pymatgen
data_TbEu3H28(C5O2)12
_symmetry_space_group_name_H-M   'P 1'
_cell_length_a   13.00600000
_cell_length_b   13.82100000
_cell_length_c   27.98200000
_cell_angle_alpha   75.67000000
_cell_angle_beta   79.35000000
_cell_angle_gamma   85.62000000
_symmetry_Int_Tables_number   1
_chemical_formula_structural   TbEu3H28(C5O2)12
_chemical_formula_sum   'Tb2 Eu6 H56 C120 O48'
_cell_volume   4787.00433396
_cell_formula_units_Z   2
loop_
 _symmetry_equiv_pos_site_id
 _symmetry_equiv_pos_as_xyz
  1  'x, y, z'
loop_
 _atom_site_type_symbol
 _atom_site_label
 _atom_site_symmetry_multiplicity
 _atom_site_fract_x
 _atom_site_fract_y
 _atom_site_fract_z
 _atom_site_occupancy
  Tb  Tb0  1  0.11972000  0.97882000  0.44595000  1.0
  Tb  Tb1  1  0.96932000  0.12476000  0.93950000  1.0
  Eu  Eu2  1  0.88028000  0.02118000  0.55405000  1.0
  Eu  Eu3  1  0.47145000  0.53782000  0.41508000  1.0
  Eu  Eu4  1  0.03068000  0.87524000  0.06050000  1.0
  Eu  Eu5  1  0.51709000  0.48078000  0.91415000  1.0
  Eu  Eu6  1  0.52855000  0.46218000  0.58492000  1.0
  Eu  Eu7  1  0.48291000  0.51922000  0.08585000  1.0
  H  H8  1  0.72430000  0.74510000  0.51540000  1.0
  H  H9  1  0.72590000  0.66710000  0.38680000  1.0
  H  H10  1  0.91780000  0.87890000  0.39110000  1.0
  H  H11  1  0.00340000  0.85510000  0.32010000  1.0
  H  H12  1  0.05870000  0.87400000  0.23530000  1.0
  H  H13  1  0.80920000  0.73550000  0.22590000  1.0
  H  H14  1  0.75140000  0.71840000  0.31010000  1.0
  H  H15  1  0.75010000  0.27150000  0.43710000  1.0
  H  H16  1  0.02660000  0.26230000  0.34690000  1.0
  H  H17  1  0.81550000  0.48060000  0.30950000  1.0
  H  H18  1  0.96810000  0.56890000  0.27600000  1.0
  H  H19  1  0.09420000  0.64430000  0.21060000  1.0
  H  H20  1  0.20670000  0.37500000  0.19440000  1.0
  H  H21  1  0.07760000  0.30080000  0.25850000  1.0
  H  H22  1  0.73820000  0.24040000  0.05730000  1.0
  H  H23  1  0.54390000  0.18230000  0.18890000  1.0
  H  H24  1  0.75780000  0.97560000  0.15380000  1.0
  H  H25  1  0.62660000  0.87140000  0.20150000  1.0
  H  H26  1  0.55840000  0.76030000  0.27470000  1.0
  H  H27  1  0.49590000  0.98330000  0.34430000  1.0
  H  H28  1  0.56110000  0.09500000  0.27040000  1.0
  H  H29  1  0.74470000  0.72950000  0.01360000  1.0
  H  H30  1  0.86260000  0.92630000  0.88820000  1.0
  H  H31  1  0.67930000  0.71140000  0.88150000  1.0
  H  H32  1  0.65120000  0.82260000  0.81020000  1.0
  H  H33  1  0.67490000  0.87760000  0.72490000  1.0
  H  H34  1  0.96370000  0.95750000  0.72350000  1.0
  H  H35  1  0.93700000  0.90700000  0.81030000  1.0
  H  H36  1  0.27570000  0.25490000  0.48460000  1.0
  H  H37  1  0.27410000  0.33290000  0.61320000  1.0
  H  H38  1  0.08220000  0.12110000  0.60890000  1.0
  H  H39  1  0.99660000  0.14490000  0.67990000  1.0
  H  H40  1  0.94130000  0.12600000  0.76470000  1.0
  H  H41  1  0.19080000  0.26450000  0.77410000  1.0
  H  H42  1  0.24860000  0.28160000  0.68990000  1.0
  H  H43  1  0.24990000  0.72850000  0.56290000  1.0
  H  H44  1  0.97340000  0.73770000  0.65310000  1.0
  H  H45  1  0.18450000  0.51940000  0.69050000  1.0
  H  H46  1  0.03190000  0.43110000  0.72400000  1.0
  H  H47  1  0.90580000  0.35570000  0.78940000  1.0
  H  H48  1  0.79330000  0.62500000  0.80560000  1.0
  H  H49  1  0.92240000  0.69920000  0.74150000  1.0
  H  H50  1  0.26180000  0.75960000  0.94270000  1.0
  H  H51  1  0.45610000  0.81770000  0.81110000  1.0
  H  H52  1  0.24220000  0.02440000  0.84620000  1.0
  H  H53  1  0.37340000  0.12860000  0.79850000  1.0
  H  H54  1  0.44160000  0.23970000  0.72530000  1.0
  H  H55  1  0.50410000  0.01670000  0.65570000  1.0
  H  H56  1  0.43890000  0.90500000  0.72960000  1.0
  H  H57  1  0.25530000  0.27050000  0.98640000  1.0
  H  H58  1  0.13740000  0.07370000  0.11180000  1.0
  H  H59  1  0.32070000  0.28860000  0.11850000  1.0
  H  H60  1  0.34880000  0.17740000  0.18980000  1.0
  H  H61  1  0.32510000  0.12240000  0.27510000  1.0
  H  H62  1  0.03630000  0.04250000  0.27650000  1.0
  H  H63  1  0.06300000  0.09300000  0.18970000  1.0
  C  C64  1  0.82530000  0.82290000  0.45730000  1.0
  C  C65  1  0.75070000  0.75250000  0.48150000  1.0
  C  C66  1  0.71580000  0.69310000  0.45490000  1.0
  C  C67  1  0.75200000  0.70580000  0.40450000  1.0
  C  C68  1  0.82840000  0.77660000  0.37910000  1.0
  C  C69  1  0.86560000  0.83350000  0.40670000  1.0
  C  C70  1  0.86610000  0.78880000  0.32440000  1.0
  C  C71  1  0.96210000  0.83340000  0.30120000  1.0
  C  C72  1  0.99490000  0.84490000  0.25010000  1.0
  C  C73  1  0.93650000  0.81480000  0.22080000  1.0
  C  C74  1  0.84670000  0.76290000  0.24430000  1.0
  C  C75  1  0.81280000  0.75200000  0.29520000  1.0
  C  C76  1  0.85980000  0.88870000  0.48670000  1.0
  C  C77  1  0.64020000  0.61260000  0.48220000  1.0
  C  C78  1  0.97360000  0.83050000  0.16540000  1.0
  C  C79  1  0.76570000  0.38350000  0.37490000  1.0
  C  C80  1  0.79570000  0.29850000  0.40780000  1.0
  C  C81  1  0.89440000  0.25290000  0.39730000  1.0
  C  C82  1  0.96130000  0.29310000  0.35390000  1.0
  C  C83  1  0.93300000  0.37930000  0.32000000  1.0
  C  C84  1  0.83530000  0.42300000  0.33150000  1.0
  C  C85  1  0.01100000  0.42640000  0.27530000  1.0
  C  C86  1  0.01660000  0.52940000  0.25990000  1.0
  C  C87  1  0.09290000  0.57500000  0.22080000  1.0
  C  C88  1  0.16700000  0.51730000  0.19710000  1.0
  C  C89  1  0.15940000  0.41470000  0.21110000  1.0
  C  C90  1  0.08180000  0.37000000  0.24970000  1.0
  C  C91  1  0.66110000  0.43290000  0.38570000  1.0
  C  C92  1  0.92960000  0.16290000  0.43530000  1.0
  C  C93  1  0.25590000  0.56610000  0.15900000  1.0
  C  C94  1  0.76200000  0.10270000  0.10010000  1.0
  C  C95  1  0.71480000  0.19690000  0.08790000  1.0
  C  C96  1  0.63270000  0.22680000  0.12110000  1.0
  C  C97  1  0.59830000  0.16170000  0.16660000  1.0
  C  C98  1  0.64290000  0.06650000  0.17970000  1.0
  C  C99  1  0.72600000  0.03870000  0.14560000  1.0
  C  C100  1  0.60070000  0.99610000  0.22740000  1.0
  C  C101  1  0.59970000  0.89490000  0.22980000  1.0
  C  C102  1  0.55910000  0.82780000  0.27400000  1.0
  C  C103  1  0.51980000  0.86010000  0.31690000  1.0
  C  C104  1  0.52130000  0.96050000  0.31560000  1.0
  C  C105  1  0.56100000  0.02740000  0.27100000  1.0
  C  C106  1  0.84910000  0.06840000  0.06400000  1.0
  C  C107  1  0.58020000  0.32800000  0.10810000  1.0
  C  C108  1  0.48080000  0.78480000  0.36510000  1.0
  C  C109  1  0.70000000  0.70800000  0.95200000  1.0
  C  C110  1  0.75180000  0.75340000  0.97900000  1.0
  C  C111  1  0.81470000  0.83440000  0.95510000  1.0
  C  C112  1  0.82360000  0.87000000  0.90400000  1.0
  C  C113  1  0.77540000  0.82330000  0.87540000  1.0
  C  C114  1  0.71290000  0.74270000  0.89980000  1.0
  C  C115  1  0.79040000  0.85890000  0.82000000  1.0
  C  C116  1  0.71430000  0.85090000  0.79320000  1.0
  C  C117  1  0.72840000  0.88330000  0.74180000  1.0
  C  C118  1  0.82170000  0.92430000  0.71540000  1.0
  C  C119  1  0.89980000  0.93160000  0.74090000  1.0
  C  C120  1  0.88410000  0.90010000  0.79330000  1.0
  C  C121  1  0.63040000  0.62340000  0.97890000  1.0
  C  C122  1  0.87300000  0.88010000  0.98470000  1.0
  C  C123  1  0.83870000  0.96110000  0.65930000  1.0
  C  C124  1  0.17470000  0.17710000  0.54270000  1.0
  C  C125  1  0.24930000  0.24750000  0.51850000  1.0
  C  C126  1  0.28420000  0.30690000  0.54510000  1.0
  C  C127  1  0.24800000  0.29420000  0.59550000  1.0
  C  C128  1  0.17160000  0.22340000  0.62090000  1.0
  C  C129  1  0.13440000  0.16650000  0.59330000  1.0
  C  C130  1  0.13390000  0.21120000  0.67560000  1.0
  C  C131  1  0.03790000  0.16660000  0.69880000  1.0
  C  C132  1  0.00510000  0.15510000  0.74990000  1.0
  C  C133  1  0.06350000  0.18520000  0.77920000  1.0
  C  C134  1  0.15330000  0.23710000  0.75570000  1.0
  C  C135  1  0.18720000  0.24800000  0.70480000  1.0
  C  C136  1  0.14020000  0.11130000  0.51330000  1.0
  C  C137  1  0.35980000  0.38740000  0.51780000  1.0
  C  C138  1  0.02640000  0.16950000  0.83460000  1.0
  C  C139  1  0.23430000  0.61650000  0.62510000  1.0
  C  C140  1  0.20430000  0.70150000  0.59220000  1.0
  C  C141  1  0.10560000  0.74710000  0.60270000  1.0
  C  C142  1  0.03870000  0.70690000  0.64610000  1.0
  C  C143  1  0.06700000  0.62070000  0.68000000  1.0
  C  C144  1  0.16470000  0.57700000  0.66850000  1.0
  C  C145  1  0.98900000  0.57360000  0.72470000  1.0
  C  C146  1  0.98340000  0.47060000  0.74010000  1.0
  C  C147  1  0.90710000  0.42500000  0.77920000  1.0
  C  C148  1  0.83300000  0.48270000  0.80290000  1.0
  C  C149  1  0.84060000  0.58530000  0.78890000  1.0
  C  C150  1  0.91820000  0.63000000  0.75030000  1.0
  C  C151  1  0.33890000  0.56710000  0.61430000  1.0
  C  C152  1  0.07040000  0.83710000  0.56470000  1.0
  C  C153  1  0.74410000  0.43390000  0.84100000  1.0
  C  C154  1  0.23800000  0.89730000  0.89990000  1.0
  C  C155  1  0.28520000  0.80310000  0.91210000  1.0
  C  C156  1  0.36730000  0.77320000  0.87890000  1.0
  C  C157  1  0.40170000  0.83830000  0.83340000  1.0
  C  C158  1  0.35710000  0.93350000  0.82030000  1.0
  C  C159  1  0.27400000  0.96130000  0.85440000  1.0
  C  C160  1  0.39930000  0.00390000  0.77260000  1.0
  C  C161  1  0.40030000  0.10510000  0.77020000  1.0
  C  C162  1  0.44090000  0.17220000  0.72600000  1.0
  C  C163  1  0.48020000  0.13990000  0.68310000  1.0
  C  C164  1  0.47870000  0.03950000  0.68440000  1.0
  C  C165  1  0.43900000  0.97260000  0.72900000  1.0
  C  C166  1  0.15090000  0.93160000  0.93600000  1.0
  C  C167  1  0.41980000  0.67200000  0.89190000  1.0
  C  C168  1  0.51920000  0.21520000  0.63490000  1.0
  C  C169  1  0.30000000  0.29200000  0.04800000  1.0
  C  C170  1  0.24820000  0.24660000  0.02100000  1.0
  C  C171  1  0.18530000  0.16560000  0.04490000  1.0
  C  C172  1  0.17640000  0.13000000  0.09600000  1.0
  C  C173  1  0.22460000  0.17670000  0.12460000  1.0
  C  C174  1  0.28710000  0.25730000  0.10020000  1.0
  C  C175  1  0.20960000  0.14110000  0.18000000  1.0
  C  C176  1  0.28570000  0.14910000  0.20680000  1.0
  C  C177  1  0.27160000  0.11670000  0.25820000  1.0
  C  C178  1  0.17830000  0.07570000  0.28460000  1.0
  C  C179  1  0.10020000  0.06840000  0.25910000  1.0
  C  C180  1  0.11590000  0.09990000  0.20670000  1.0
  C  C181  1  0.36960000  0.37660000  0.02110000  1.0
  C  C182  1  0.12700000  0.11990000  0.01530000  1.0
  C  C183  1  0.16130000  0.03890000  0.34070000  1.0
  O  O184  1  0.94570000  0.93200000  0.47215000  1.0
  O  O185  1  0.79910000  0.89900000  0.52589000  1.0
  O  O186  1  0.59970000  0.56730000  0.45670000  1.0
  O  O187  1  0.62380000  0.59060000  0.52878000  1.0
  O  O188  1  0.04520000  0.88960000  0.14447000  1.0
  O  O189  1  0.93130000  0.78580000  0.14087000  1.0
  O  O190  1  0.63990000  0.51690000  0.35808000  1.0
  O  O191  1  0.59550000  0.39250000  0.42354000  1.0
  O  O192  1  0.86870000  0.13510000  0.47589000  1.0
  O  O193  1  0.01880000  0.12660000  0.42246000  1.0
  O  O194  1  0.25990000  0.65930000  0.14692000  1.0
  O  O195  1  0.32570000  0.50800000  0.14153000  1.0
  O  O196  1  0.88910000  0.98360000  0.07757000  1.0
  O  O197  1  0.87590000  0.12730000  0.02152000  1.0
  O  O198  1  0.50410000  0.35110000  0.13833000  1.0
  O  O199  1  0.61240000  0.38720000  0.06681000  1.0
  O  O200  1  0.49050000  0.69420000  0.36318000  1.0
  O  O201  1  0.44390000  0.81440000  0.40300000  1.0
  O  O202  1  0.59760000  0.57200000  0.95480000  1.0
  O  O203  1  0.61130000  0.60700000  0.02558000  1.0
  O  O204  1  0.90120000  0.96790000  0.96719000  1.0
  O  O205  1  0.89380000  0.82670000  0.02536000  1.0
  O  O206  1  0.77830000  0.93540000  0.63516000  1.0
  O  O207  1  0.91300000  0.01760000  0.63837000  1.0
  O  O208  1  0.05430000  0.06800000  0.52785000  1.0
  O  O209  1  0.20090000  0.10100000  0.47411000  1.0
  O  O210  1  0.40030000  0.43270000  0.54330000  1.0
  O  O211  1  0.37620000  0.40940000  0.47122000  1.0
  O  O212  1  0.95480000  0.11040000  0.85553000  1.0
  O  O213  1  0.06870000  0.21420000  0.85913000  1.0
  O  O214  1  0.36010000  0.48310000  0.64192000  1.0
  O  O215  1  0.40450000  0.60750000  0.57646000  1.0
  O  O216  1  0.13130000  0.86490000  0.52411000  1.0
  O  O217  1  0.98120000  0.87340000  0.57754000  1.0
  O  O218  1  0.74010000  0.34070000  0.85308000  1.0
  O  O219  1  0.67430000  0.49200000  0.85847000  1.0
  O  O220  1  0.11090000  0.01640000  0.92243000  1.0
  O  O221  1  0.12410000  0.87270000  0.97848000  1.0
  O  O222  1  0.49590000  0.64890000  0.86167000  1.0
  O  O223  1  0.38760000  0.61280000  0.93319000  1.0
  O  O224  1  0.50950000  0.30580000  0.63682000  1.0
  O  O225  1  0.55610000  0.18560000  0.59700000  1.0
  O  O226  1  0.40240000  0.42800000  0.04520000  1.0
  O  O227  1  0.38870000  0.39300000  0.97442000  1.0
  O  O228  1  0.09880000  0.03210000  0.03281000  1.0
  O  O229  1  0.10620000  0.17330000  0.97464000  1.0
  O  O230  1  0.22170000  0.06460000  0.36484000  1.0
  O  O231  1  0.08700000  0.98240000  0.36163000  1.0
