# generated using pymatgen
data_TbEuH14(C5O2)6
_symmetry_space_group_name_H-M   'P 1'
_cell_length_a   12.95500000
_cell_length_b   13.81400000
_cell_length_c   27.96200000
_cell_angle_alpha   75.69000000
_cell_angle_beta   79.38000000
_cell_angle_gamma   85.69000000
_symmetry_Int_Tables_number   1
_chemical_formula_structural   TbEuH14(C5O2)6
_chemical_formula_sum   'Tb4 Eu4 H56 C120 O48'
_cell_volume   4763.46830704
_cell_formula_units_Z   4
loop_
 _symmetry_equiv_pos_site_id
 _symmetry_equiv_pos_as_xyz
  1  'x, y, z'
loop_
 _atom_site_type_symbol
 _atom_site_label
 _atom_site_symmetry_multiplicity
 _atom_site_fract_x
 _atom_site_fract_y
 _atom_site_fract_z
 _atom_site_occupancy
  Tb  Tb0  1  0.12009000  0.97876000  0.44616000  1.0
  Tb  Tb1  1  0.52891000  0.46245000  0.58508000  1.0
  Tb  Tb2  1  0.96900000  0.12507000  0.93966000  1.0
  Tb  Tb3  1  0.48374000  0.51934000  0.08580000  1.0
  Eu  Eu4  1  0.87991000  0.02124000  0.55384000  1.0
  Eu  Eu5  1  0.47109000  0.53755000  0.41492000  1.0
  Eu  Eu6  1  0.03100000  0.87493000  0.06034000  1.0
  Eu  Eu7  1  0.51626000  0.48066000  0.91420000  1.0
  H  H8  1  0.72310000  0.74650000  0.51480000  1.0
  H  H9  1  0.72660000  0.66640000  0.38640000  1.0
  H  H10  1  0.91820000  0.87960000  0.39060000  1.0
  H  H11  1  0.00500000  0.85210000  0.32020000  1.0
  H  H12  1  0.05940000  0.87500000  0.23430000  1.0
  H  H13  1  0.80940000  0.73560000  0.22500000  1.0
  H  H14  1  0.75270000  0.71570000  0.30950000  1.0
  H  H15  1  0.75050000  0.27240000  0.43750000  1.0
  H  H16  1  0.02670000  0.26180000  0.34650000  1.0
  H  H17  1  0.81560000  0.48040000  0.30910000  1.0
  H  H18  1  0.96830000  0.56920000  0.27580000  1.0
  H  H19  1  0.09690000  0.64350000  0.21130000  1.0
  H  H20  1  0.20720000  0.37470000  0.19380000  1.0
  H  H21  1  0.07960000  0.30030000  0.25900000  1.0
  H  H22  1  0.73850000  0.24070000  0.05710000  1.0
  H  H23  1  0.54490000  0.18300000  0.18930000  1.0
  H  H24  1  0.75790000  0.97450000  0.15440000  1.0
  H  H25  1  0.62530000  0.87260000  0.20120000  1.0
  H  H26  1  0.55820000  0.76030000  0.27490000  1.0
  H  H27  1  0.49640000  0.98370000  0.34390000  1.0
  H  H28  1  0.56290000  0.09540000  0.27130000  1.0
  H  H29  1  0.74580000  0.72930000  0.01330000  1.0
  H  H30  1  0.86170000  0.92700000  0.88770000  1.0
  H  H31  1  0.67910000  0.71110000  0.88100000  1.0
  H  H32  1  0.64940000  0.82460000  0.80980000  1.0
  H  H33  1  0.67390000  0.87760000  0.72460000  1.0
  H  H34  1  0.96360000  0.95750000  0.72350000  1.0
  H  H35  1  0.93690000  0.90730000  0.80970000  1.0
  H  H36  1  0.27690000  0.25350000  0.48520000  1.0
  H  H37  1  0.27340000  0.33360000  0.61360000  1.0
  H  H38  1  0.08180000  0.12040000  0.60940000  1.0
  H  H39  1  0.99500000  0.14790000  0.67980000  1.0
  H  H40  1  0.94060000  0.12500000  0.76570000  1.0
  H  H41  1  0.19060000  0.26440000  0.77500000  1.0
  H  H42  1  0.24730000  0.28430000  0.69050000  1.0
  H  H43  1  0.24950000  0.72760000  0.56250000  1.0
  H  H44  1  0.97330000  0.73820000  0.65350000  1.0
  H  H45  1  0.18440000  0.51960000  0.69090000  1.0
  H  H46  1  0.03170000  0.43080000  0.72420000  1.0
  H  H47  1  0.90310000  0.35650000  0.78870000  1.0
  H  H48  1  0.79280000  0.62530000  0.80620000  1.0
  H  H49  1  0.92040000  0.69970000  0.74100000  1.0
  H  H50  1  0.26150000  0.75930000  0.94290000  1.0
  H  H51  1  0.45510000  0.81700000  0.81070000  1.0
  H  H52  1  0.24210000  0.02550000  0.84560000  1.0
  H  H53  1  0.37470000  0.12740000  0.79880000  1.0
  H  H54  1  0.44180000  0.23970000  0.72510000  1.0
  H  H55  1  0.50360000  0.01630000  0.65610000  1.0
  H  H56  1  0.43710000  0.90460000  0.72870000  1.0
  H  H57  1  0.25420000  0.27070000  0.98670000  1.0
  H  H58  1  0.13830000  0.07300000  0.11230000  1.0
  H  H59  1  0.32090000  0.28890000  0.11900000  1.0
  H  H60  1  0.35060000  0.17540000  0.19020000  1.0
  H  H61  1  0.32610000  0.12240000  0.27540000  1.0
  H  H62  1  0.03640000  0.04250000  0.27650000  1.0
  H  H63  1  0.06310000  0.09270000  0.19030000  1.0
  C  C64  1  0.82560000  0.82320000  0.45700000  1.0
  C  C65  1  0.75030000  0.75300000  0.48110000  1.0
  C  C66  1  0.71540000  0.69210000  0.45460000  1.0
  C  C67  1  0.75240000  0.70520000  0.40420000  1.0
  C  C68  1  0.82910000  0.77670000  0.37870000  1.0
  C  C69  1  0.86600000  0.83390000  0.40620000  1.0
  C  C70  1  0.86600000  0.78830000  0.32410000  1.0
  C  C71  1  0.96280000  0.83190000  0.30110000  1.0
  C  C72  1  0.99580000  0.84490000  0.24930000  1.0
  C  C73  1  0.93710000  0.81450000  0.22060000  1.0
  C  C74  1  0.84710000  0.76250000  0.24360000  1.0
  C  C75  1  0.81350000  0.75070000  0.29460000  1.0
  C  C76  1  0.86070000  0.88880000  0.48610000  1.0
  C  C77  1  0.63950000  0.61190000  0.48150000  1.0
  C  C78  1  0.97370000  0.83030000  0.16490000  1.0
  C  C79  1  0.76500000  0.38320000  0.37420000  1.0
  C  C80  1  0.79590000  0.29830000  0.40780000  1.0
  C  C81  1  0.89370000  0.25160000  0.39770000  1.0
  C  C82  1  0.96120000  0.29250000  0.35360000  1.0
  C  C83  1  0.93270000  0.37900000  0.31960000  1.0
  C  C84  1  0.83510000  0.42250000  0.33110000  1.0
  C  C85  1  0.01070000  0.42610000  0.27520000  1.0
  C  C86  1  0.01690000  0.52930000  0.25980000  1.0
  C  C87  1  0.09450000  0.57410000  0.22100000  1.0
  C  C88  1  0.16810000  0.51690000  0.19670000  1.0
  C  C89  1  0.16030000  0.41440000  0.21070000  1.0
  C  C90  1  0.08280000  0.36960000  0.24980000  1.0
  C  C91  1  0.65990000  0.43270000  0.38540000  1.0
  C  C92  1  0.93040000  0.16240000  0.43510000  1.0
  C  C93  1  0.25690000  0.56530000  0.15840000  1.0
  C  C94  1  0.76250000  0.10250000  0.10010000  1.0
  C  C95  1  0.71510000  0.19730000  0.08780000  1.0
  C  C96  1  0.63360000  0.22690000  0.12100000  1.0
  C  C97  1  0.59920000  0.16230000  0.16690000  1.0
  C  C98  1  0.64430000  0.06740000  0.17990000  1.0
  C  C99  1  0.72670000  0.03790000  0.14610000  1.0
  C  C100  1  0.60140000  0.99610000  0.22780000  1.0
  C  C101  1  0.59940000  0.89570000  0.22980000  1.0
  C  C102  1  0.55910000  0.82790000  0.27430000  1.0
  C  C103  1  0.52050000  0.86020000  0.31760000  1.0
  C  C104  1  0.52250000  0.96060000  0.31530000  1.0
  C  C105  1  0.56220000  0.02800000  0.27170000  1.0
  C  C106  1  0.84970000  0.06840000  0.06390000  1.0
  C  C107  1  0.58130000  0.32780000  0.10800000  1.0
  C  C108  1  0.48070000  0.78380000  0.36520000  1.0
  C  C109  1  0.69910000  0.70780000  0.95180000  1.0
  C  C110  1  0.75200000  0.75340000  0.97880000  1.0
  C  C111  1  0.81420000  0.83490000  0.95470000  1.0
  C  C112  1  0.82290000  0.87050000  0.90360000  1.0
  C  C113  1  0.77480000  0.82360000  0.87500000  1.0
  C  C114  1  0.71240000  0.74270000  0.89950000  1.0
  C  C115  1  0.78950000  0.85860000  0.81940000  1.0
  C  C116  1  0.71320000  0.85170000  0.79270000  1.0
  C  C117  1  0.72770000  0.88340000  0.74160000  1.0
  C  C118  1  0.82200000  0.92400000  0.71480000  1.0
  C  C119  1  0.89940000  0.93130000  0.74080000  1.0
  C  C120  1  0.88380000  0.90030000  0.79260000  1.0
  C  C121  1  0.63030000  0.62300000  0.97870000  1.0
  C  C122  1  0.87370000  0.88090000  0.98450000  1.0
  C  C123  1  0.83920000  0.96150000  0.65860000  1.0
  C  C124  1  0.17440000  0.17680000  0.54300000  1.0
  C  C125  1  0.24970000  0.24700000  0.51890000  1.0
  C  C126  1  0.28460000  0.30790000  0.54540000  1.0
  C  C127  1  0.24760000  0.29480000  0.59580000  1.0
  C  C128  1  0.17090000  0.22330000  0.62130000  1.0
  C  C129  1  0.13400000  0.16610000  0.59380000  1.0
  C  C130  1  0.13400000  0.21170000  0.67590000  1.0
  C  C131  1  0.03720000  0.16810000  0.69890000  1.0
  C  C132  1  0.00420000  0.15510000  0.75070000  1.0
  C  C133  1  0.06290000  0.18550000  0.77940000  1.0
  C  C134  1  0.15290000  0.23750000  0.75640000  1.0
  C  C135  1  0.18650000  0.24930000  0.70540000  1.0
  C  C136  1  0.13930000  0.11120000  0.51390000  1.0
  C  C137  1  0.36050000  0.38810000  0.51850000  1.0
  C  C138  1  0.02630000  0.16970000  0.83510000  1.0
  C  C139  1  0.23500000  0.61680000  0.62580000  1.0
  C  C140  1  0.20410000  0.70170000  0.59220000  1.0
  C  C141  1  0.10630000  0.74840000  0.60230000  1.0
  C  C142  1  0.03880000  0.70750000  0.64640000  1.0
  C  C143  1  0.06730000  0.62100000  0.68040000  1.0
  C  C144  1  0.16490000  0.57750000  0.66890000  1.0
  C  C145  1  0.98930000  0.57390000  0.72480000  1.0
  C  C146  1  0.98310000  0.47070000  0.74020000  1.0
  C  C147  1  0.90550000  0.42590000  0.77900000  1.0
  C  C148  1  0.83190000  0.48310000  0.80330000  1.0
  C  C149  1  0.83970000  0.58560000  0.78930000  1.0
  C  C150  1  0.91720000  0.63040000  0.75020000  1.0
  C  C151  1  0.34010000  0.56730000  0.61460000  1.0
  C  C152  1  0.06960000  0.83760000  0.56490000  1.0
  C  C153  1  0.74310000  0.43470000  0.84160000  1.0
  C  C154  1  0.23750000  0.89750000  0.89990000  1.0
  C  C155  1  0.28490000  0.80270000  0.91220000  1.0
  C  C156  1  0.36640000  0.77310000  0.87900000  1.0
  C  C157  1  0.40080000  0.83770000  0.83310000  1.0
  C  C158  1  0.35570000  0.93260000  0.82010000  1.0
  C  C159  1  0.27330000  0.96210000  0.85390000  1.0
  C  C160  1  0.39860000  0.00390000  0.77220000  1.0
  C  C161  1  0.40060000  0.10430000  0.77020000  1.0
  C  C162  1  0.44090000  0.17210000  0.72570000  1.0
  C  C163  1  0.47950000  0.13980000  0.68240000  1.0
  C  C164  1  0.47750000  0.03940000  0.68470000  1.0
  C  C165  1  0.43780000  0.97200000  0.72830000  1.0
  C  C166  1  0.15030000  0.93160000  0.93610000  1.0
  C  C167  1  0.41870000  0.67220000  0.89200000  1.0
  C  C168  1  0.51930000  0.21620000  0.63480000  1.0
  C  C169  1  0.30090000  0.29220000  0.04820000  1.0
  C  C170  1  0.24800000  0.24660000  0.02120000  1.0
  C  C171  1  0.18580000  0.16510000  0.04530000  1.0
  C  C172  1  0.17710000  0.12950000  0.09640000  1.0
  C  C173  1  0.22520000  0.17640000  0.12500000  1.0
  C  C174  1  0.28760000  0.25730000  0.10050000  1.0
  C  C175  1  0.21050000  0.14140000  0.18060000  1.0
  C  C176  1  0.28680000  0.14830000  0.20730000  1.0
  C  C177  1  0.27230000  0.11660000  0.25840000  1.0
  C  C178  1  0.17800000  0.07600000  0.28520000  1.0
  C  C179  1  0.10060000  0.06870000  0.25920000  1.0
  C  C180  1  0.11620000  0.09970000  0.20740000  1.0
  C  C181  1  0.36970000  0.37700000  0.02130000  1.0
  C  C182  1  0.12630000  0.11910000  0.01550000  1.0
  C  C183  1  0.16080000  0.03850000  0.34140000  1.0
  O  O184  1  0.94680000  0.93100000  0.47167000  1.0
  O  O185  1  0.79960000  0.89970000  0.52548000  1.0
  O  O186  1  0.59930000  0.56740000  0.45588000  1.0
  O  O187  1  0.62380000  0.59010000  0.52835000  1.0
  O  O188  1  0.04570000  0.88880000  0.14407000  1.0
  O  O189  1  0.93160000  0.78480000  0.14023000  1.0
  O  O190  1  0.63830000  0.51620000  0.35775000  1.0
  O  O191  1  0.59470000  0.39160000  0.42331000  1.0
  O  O192  1  0.86820000  0.13430000  0.47582000  1.0
  O  O193  1  0.01910000  0.12580000  0.42252000  1.0
  O  O194  1  0.26040000  0.65930000  0.14674000  1.0
  O  O195  1  0.32660000  0.50770000  0.14135000  1.0
  O  O196  1  0.88960000  0.98240000  0.07775000  1.0
  O  O197  1  0.87650000  0.12690000  0.02135000  1.0
  O  O198  1  0.50560000  0.35250000  0.13861000  1.0
  O  O199  1  0.61300000  0.38740000  0.06648000  1.0
  O  O200  1  0.48980000  0.69360000  0.36325000  1.0
  O  O201  1  0.44430000  0.81430000  0.40367000  1.0
  O  O202  1  0.59680000  0.57210000  0.95425000  1.0
  O  O203  1  0.61120000  0.60720000  0.02515000  1.0
  O  O204  1  0.90060000  0.96930000  0.96644000  1.0
  O  O205  1  0.89420000  0.82730000  0.02492000  1.0
  O  O206  1  0.77900000  0.93440000  0.63488000  1.0
  O  O207  1  0.91240000  0.01850000  0.63769000  1.0
  O  O208  1  0.05320000  0.06900000  0.52833000  1.0
  O  O209  1  0.20040000  0.10030000  0.47452000  1.0
  O  O210  1  0.40070000  0.43260000  0.54412000  1.0
  O  O211  1  0.37620000  0.40990000  0.47165000  1.0
  O  O212  1  0.95430000  0.11120000  0.85593000  1.0
  O  O213  1  0.06840000  0.21520000  0.85977000  1.0
  O  O214  1  0.36170000  0.48380000  0.64225000  1.0
  O  O215  1  0.40530000  0.60840000  0.57669000  1.0
  O  O216  1  0.13180000  0.86570000  0.52418000  1.0
  O  O217  1  0.98090000  0.87420000  0.57748000  1.0
  O  O218  1  0.73960000  0.34070000  0.85326000  1.0
  O  O219  1  0.67340000  0.49230000  0.85865000  1.0
  O  O220  1  0.11040000  0.01760000  0.92225000  1.0
  O  O221  1  0.12350000  0.87310000  0.97865000  1.0
  O  O222  1  0.49440000  0.64750000  0.86139000  1.0
  O  O223  1  0.38700000  0.61260000  0.93352000  1.0
  O  O224  1  0.51020000  0.30640000  0.63675000  1.0
  O  O225  1  0.55570000  0.18570000  0.59633000  1.0
  O  O226  1  0.40320000  0.42790000  0.04575000  1.0
  O  O227  1  0.38880000  0.39280000  0.97485000  1.0
  O  O228  1  0.09940000  0.03070000  0.03356000  1.0
  O  O229  1  0.10580000  0.17270000  0.97508000  1.0
  O  O230  1  0.22100000  0.06560000  0.36512000  1.0
  O  O231  1  0.08760000  0.98150000  0.36231000  1.0
