# generated using pymatgen
data_V2P2H7C3O7
_symmetry_space_group_name_H-M   'P 1'
_cell_length_a   15.20030000
_cell_length_b   10.21220000
_cell_length_c   18.59030000
_cell_angle_alpha   90.00000000
_cell_angle_beta   103.53000000
_cell_angle_gamma   90.00000000
_symmetry_Int_Tables_number   1
_chemical_formula_structural   V2P2H7C3O7
_chemical_formula_sum   'V16 P16 H56 C24 O56'
_cell_volume   2805.65798859
_cell_formula_units_Z   8
loop_
 _symmetry_equiv_pos_site_id
 _symmetry_equiv_pos_as_xyz
  1  'x, y, z'
loop_
 _atom_site_type_symbol
 _atom_site_label
 _atom_site_symmetry_multiplicity
 _atom_site_fract_x
 _atom_site_fract_y
 _atom_site_fract_z
 _atom_site_occupancy
  V  V0  1  0.16025000  0.38417000  0.08394000  1.0
  V  V1  1  0.24790000  0.45352000  0.28394000  1.0
  V  V2  1  0.66025000  0.88417000  0.08394000  1.0
  V  V3  1  0.74790000  0.95352000  0.28394000  1.0
  V  V4  1  0.83975000  0.38417000  0.41606000  1.0
  V  V5  1  0.75210000  0.45352000  0.21606000  1.0
  V  V6  1  0.33975000  0.88417000  0.41606000  1.0
  V  V7  1  0.25210000  0.95352000  0.21606000  1.0
  V  V8  1  0.83975000  0.61583000  0.91606000  1.0
  V  V9  1  0.75210000  0.54648000  0.71606000  1.0
  V  V10  1  0.33975000  0.11583000  0.91606000  1.0
  V  V11  1  0.25210000  0.04648000  0.71606000  1.0
  V  V12  1  0.16025000  0.61583000  0.58394000  1.0
  V  V13  1  0.24790000  0.54648000  0.78394000  1.0
  V  V14  1  0.66025000  0.11583000  0.58394000  1.0
  V  V15  1  0.74790000  0.04648000  0.78394000  1.0
  P  P16  1  0.21364000  0.37837000  0.92221000  1.0
  P  P17  1  0.83657000  0.33134000  0.83572000  1.0
  P  P18  1  0.71364000  0.87837000  0.92221000  1.0
  P  P19  1  0.33657000  0.83134000  0.83572000  1.0
  P  P20  1  0.78636000  0.37837000  0.57779000  1.0
  P  P21  1  0.16343000  0.33134000  0.66428000  1.0
  P  P22  1  0.28636000  0.87837000  0.57779000  1.0
  P  P23  1  0.66343000  0.83134000  0.66428000  1.0
  P  P24  1  0.78636000  0.62163000  0.07779000  1.0
  P  P25  1  0.16343000  0.66866000  0.16428000  1.0
  P  P26  1  0.28636000  0.12163000  0.07779000  1.0
  P  P27  1  0.66343000  0.16866000  0.16428000  1.0
  P  P28  1  0.21364000  0.62163000  0.42221000  1.0
  P  P29  1  0.83657000  0.66866000  0.33572000  1.0
  P  P30  1  0.71364000  0.12163000  0.42221000  1.0
  P  P31  1  0.33657000  0.16866000  0.33572000  1.0
  H  H32  1  0.11400000  0.20910000  0.92420000  1.0
  H  H33  1  0.12240000  0.23630000  0.84140000  1.0
  H  H34  1  0.95240000  0.19720000  0.82010000  1.0
  H  H35  1  0.95170000  0.20710000  0.90560000  1.0
  H  H36  1  0.02130000  0.40890000  0.82770000  1.0
  H  H37  1  0.02480000  0.41150000  0.91450000  1.0
  H  H38  1  0.21400000  0.29400000  0.19600000  1.0
  H  H39  1  0.61400000  0.70910000  0.92420000  1.0
  H  H40  1  0.62240000  0.73630000  0.84140000  1.0
  H  H41  1  0.45240000  0.69720000  0.82010000  1.0
  H  H42  1  0.45170000  0.70710000  0.90560000  1.0
  H  H43  1  0.52130000  0.90890000  0.82770000  1.0
  H  H44  1  0.52480000  0.91150000  0.91450000  1.0
  H  H45  1  0.71400000  0.79400000  0.19600000  1.0
  H  H46  1  0.88600000  0.20910000  0.57580000  1.0
  H  H47  1  0.87760000  0.23630000  0.65860000  1.0
  H  H48  1  0.04760000  0.19720000  0.67990000  1.0
  H  H49  1  0.04830000  0.20710000  0.59440000  1.0
  H  H50  1  0.97870000  0.40890000  0.67230000  1.0
  H  H51  1  0.97520000  0.41150000  0.58550000  1.0
  H  H52  1  0.78600000  0.29400000  0.30400000  1.0
  H  H53  1  0.38600000  0.70910000  0.57580000  1.0
  H  H54  1  0.37760000  0.73630000  0.65860000  1.0
  H  H55  1  0.54760000  0.69720000  0.67990000  1.0
  H  H56  1  0.54830000  0.70710000  0.59440000  1.0
  H  H57  1  0.47870000  0.90890000  0.67230000  1.0
  H  H58  1  0.47520000  0.91150000  0.58550000  1.0
  H  H59  1  0.28600000  0.79400000  0.30400000  1.0
  H  H60  1  0.88600000  0.79090000  0.07580000  1.0
  H  H61  1  0.87760000  0.76370000  0.15860000  1.0
  H  H62  1  0.04760000  0.80280000  0.17990000  1.0
  H  H63  1  0.04830000  0.79290000  0.09440000  1.0
  H  H64  1  0.97870000  0.59110000  0.17230000  1.0
  H  H65  1  0.97520000  0.58850000  0.08550000  1.0
  H  H66  1  0.78600000  0.70600000  0.80400000  1.0
  H  H67  1  0.38600000  0.29090000  0.07580000  1.0
  H  H68  1  0.37760000  0.26370000  0.15860000  1.0
  H  H69  1  0.54760000  0.30280000  0.17990000  1.0
  H  H70  1  0.54830000  0.29290000  0.09440000  1.0
  H  H71  1  0.47870000  0.09110000  0.17230000  1.0
  H  H72  1  0.47520000  0.08850000  0.08550000  1.0
  H  H73  1  0.28600000  0.20600000  0.80400000  1.0
  H  H74  1  0.11400000  0.79090000  0.42420000  1.0
  H  H75  1  0.12240000  0.76370000  0.34140000  1.0
  H  H76  1  0.95240000  0.80280000  0.32010000  1.0
  H  H77  1  0.95170000  0.79290000  0.40560000  1.0
  H  H78  1  0.02130000  0.59110000  0.32770000  1.0
  H  H79  1  0.02480000  0.58850000  0.41450000  1.0
  H  H80  1  0.21400000  0.70600000  0.69600000  1.0
  H  H81  1  0.61400000  0.29090000  0.42420000  1.0
  H  H82  1  0.62240000  0.26370000  0.34140000  1.0
  H  H83  1  0.45240000  0.30280000  0.32010000  1.0
  H  H84  1  0.45170000  0.29290000  0.40560000  1.0
  H  H85  1  0.52130000  0.09110000  0.32770000  1.0
  H  H86  1  0.52480000  0.08850000  0.41450000  1.0
  H  H87  1  0.71400000  0.20600000  0.69600000  1.0
  C  C88  1  0.11600000  0.27900000  0.88770000  1.0
  C  C89  1  0.94680000  0.25890000  0.85990000  1.0
  C  C90  1  0.02630000  0.35350000  0.87220000  1.0
  C  C91  1  0.61600000  0.77900000  0.88770000  1.0
  C  C92  1  0.44680000  0.75890000  0.85990000  1.0
  C  C93  1  0.52630000  0.85350000  0.87220000  1.0
  C  C94  1  0.88400000  0.27900000  0.61230000  1.0
  C  C95  1  0.05320000  0.25890000  0.64010000  1.0
  C  C96  1  0.97370000  0.35350000  0.62780000  1.0
  C  C97  1  0.38400000  0.77900000  0.61230000  1.0
  C  C98  1  0.55320000  0.75890000  0.64010000  1.0
  C  C99  1  0.47370000  0.85350000  0.62780000  1.0
  C  C100  1  0.88400000  0.72100000  0.11230000  1.0
  C  C101  1  0.05320000  0.74110000  0.14010000  1.0
  C  C102  1  0.97370000  0.64650000  0.12780000  1.0
  C  C103  1  0.38400000  0.22100000  0.11230000  1.0
  C  C104  1  0.55320000  0.24110000  0.14010000  1.0
  C  C105  1  0.47370000  0.14650000  0.12780000  1.0
  C  C106  1  0.11600000  0.72100000  0.38770000  1.0
  C  C107  1  0.94680000  0.74110000  0.35990000  1.0
  C  C108  1  0.02630000  0.64650000  0.37220000  1.0
  C  C109  1  0.61600000  0.22100000  0.38770000  1.0
  C  C110  1  0.44680000  0.24110000  0.35990000  1.0
  C  C111  1  0.52630000  0.14650000  0.37220000  1.0
  O  O112  1  0.21142000  0.42570000  0.99987000  1.0
  O  O113  1  0.82529000  0.42700000  0.89613000  1.0
  O  O114  1  0.20250000  0.35660000  0.19155000  1.0
  O  O115  1  0.29814000  0.29920000  0.92159000  1.0
  O  O116  1  0.20981000  0.50140000  0.87420000  1.0
  O  O117  1  0.76704000  0.22190000  0.83032000  1.0
  O  O118  1  0.82841000  0.39940000  0.76113000  1.0
  O  O119  1  0.71142000  0.92570000  0.99987000  1.0
  O  O120  1  0.32529000  0.92700000  0.89613000  1.0
  O  O121  1  0.70250000  0.85660000  0.19155000  1.0
  O  O122  1  0.79814000  0.79920000  0.92159000  1.0
  O  O123  1  0.70981000  0.00140000  0.87420000  1.0
  O  O124  1  0.26704000  0.72190000  0.83032000  1.0
  O  O125  1  0.32841000  0.89940000  0.76113000  1.0
  O  O126  1  0.78858000  0.42570000  0.50013000  1.0
  O  O127  1  0.17471000  0.42700000  0.60387000  1.0
  O  O128  1  0.79750000  0.35660000  0.30845000  1.0
  O  O129  1  0.70186000  0.29920000  0.57841000  1.0
  O  O130  1  0.79019000  0.50140000  0.62580000  1.0
  O  O131  1  0.23296000  0.22190000  0.66968000  1.0
  O  O132  1  0.17159000  0.39940000  0.73887000  1.0
  O  O133  1  0.28858000  0.92570000  0.50013000  1.0
  O  O134  1  0.67471000  0.92700000  0.60387000  1.0
  O  O135  1  0.29750000  0.85660000  0.30845000  1.0
  O  O136  1  0.20186000  0.79920000  0.57841000  1.0
  O  O137  1  0.29019000  0.00140000  0.62580000  1.0
  O  O138  1  0.73296000  0.72190000  0.66968000  1.0
  O  O139  1  0.67159000  0.89940000  0.73887000  1.0
  O  O140  1  0.78858000  0.57430000  0.00013000  1.0
  O  O141  1  0.17471000  0.57300000  0.10387000  1.0
  O  O142  1  0.79750000  0.64340000  0.80845000  1.0
  O  O143  1  0.70186000  0.70080000  0.07841000  1.0
  O  O144  1  0.79019000  0.49860000  0.12580000  1.0
  O  O145  1  0.23296000  0.77810000  0.16968000  1.0
  O  O146  1  0.17159000  0.60060000  0.23887000  1.0
  O  O147  1  0.28858000  0.07430000  0.00013000  1.0
  O  O148  1  0.67471000  0.07300000  0.10387000  1.0
  O  O149  1  0.29750000  0.14340000  0.80845000  1.0
  O  O150  1  0.20186000  0.20080000  0.07841000  1.0
  O  O151  1  0.29019000  0.99860000  0.12580000  1.0
  O  O152  1  0.73296000  0.27810000  0.16968000  1.0
  O  O153  1  0.67159000  0.10060000  0.23887000  1.0
  O  O154  1  0.21142000  0.57430000  0.49987000  1.0
  O  O155  1  0.82529000  0.57300000  0.39613000  1.0
  O  O156  1  0.20250000  0.64340000  0.69155000  1.0
  O  O157  1  0.29814000  0.70080000  0.42159000  1.0
  O  O158  1  0.20981000  0.49860000  0.37420000  1.0
  O  O159  1  0.76704000  0.77810000  0.33032000  1.0
  O  O160  1  0.82841000  0.60060000  0.26113000  1.0
  O  O161  1  0.71142000  0.07430000  0.49987000  1.0
  O  O162  1  0.32529000  0.07300000  0.39613000  1.0
  O  O163  1  0.70250000  0.14340000  0.69155000  1.0
  O  O164  1  0.79814000  0.20080000  0.42159000  1.0
  O  O165  1  0.70981000  0.99860000  0.37420000  1.0
  O  O166  1  0.26704000  0.27810000  0.33032000  1.0
  O  O167  1  0.32841000  0.10060000  0.26113000  1.0
