# generated using pymatgen
data_V2P2H7C3O7
_symmetry_space_group_name_H-M   'P 1'
_cell_length_a   15.71200000
_cell_length_b   10.03000000
_cell_length_c   18.65600000
_cell_angle_alpha   90.00000000
_cell_angle_beta   103.32800000
_cell_angle_gamma   90.00000000
_symmetry_Int_Tables_number   1
_chemical_formula_structural   V2P2H7C3O7
_chemical_formula_sum   'V16 P16 H56 C24 O56'
_cell_volume   2860.83877386
_cell_formula_units_Z   8
loop_
 _symmetry_equiv_pos_site_id
 _symmetry_equiv_pos_as_xyz
  1  'x, y, z'
loop_
 _atom_site_type_symbol
 _atom_site_label
 _atom_site_symmetry_multiplicity
 _atom_site_fract_x
 _atom_site_fract_y
 _atom_site_fract_z
 _atom_site_occupancy
  V  V0  1  0.16272000  0.11690000  0.08371000  1.0
  V  V1  1  0.75412000  0.04224000  0.21608000  1.0
  V  V2  1  0.66272000  0.61690000  0.08371000  1.0
  V  V3  1  0.25412000  0.54224000  0.21608000  1.0
  V  V4  1  0.83728000  0.11690000  0.41629000  1.0
  V  V5  1  0.24588000  0.04224000  0.28392000  1.0
  V  V6  1  0.33728000  0.61690000  0.41629000  1.0
  V  V7  1  0.74588000  0.54224000  0.28392000  1.0
  V  V8  1  0.83728000  0.88310000  0.91629000  1.0
  V  V9  1  0.24588000  0.95776000  0.78392000  1.0
  V  V10  1  0.33728000  0.38310000  0.91629000  1.0
  V  V11  1  0.74588000  0.45776000  0.78392000  1.0
  V  V12  1  0.16272000  0.88310000  0.58371000  1.0
  V  V13  1  0.75412000  0.95776000  0.71608000  1.0
  V  V14  1  0.66272000  0.38310000  0.58371000  1.0
  V  V15  1  0.25412000  0.45776000  0.71608000  1.0
  P  P16  1  0.15956000  0.82785000  0.16288000  1.0
  P  P17  1  0.79416000  0.87877000  0.07898000  1.0
  P  P18  1  0.65956000  0.32785000  0.16288000  1.0
  P  P19  1  0.29416000  0.37877000  0.07898000  1.0
  P  P20  1  0.84044000  0.82785000  0.33712000  1.0
  P  P21  1  0.20584000  0.87877000  0.42102000  1.0
  P  P22  1  0.34044000  0.32785000  0.33712000  1.0
  P  P23  1  0.70584000  0.37877000  0.42102000  1.0
  P  P24  1  0.84044000  0.17215000  0.83712000  1.0
  P  P25  1  0.20584000  0.12123000  0.92102000  1.0
  P  P26  1  0.34044000  0.67215000  0.83712000  1.0
  P  P27  1  0.70584000  0.62123000  0.92102000  1.0
  P  P28  1  0.15956000  0.17215000  0.66288000  1.0
  P  P29  1  0.79416000  0.12123000  0.57898000  1.0
  P  P30  1  0.65956000  0.67215000  0.66288000  1.0
  P  P31  1  0.29416000  0.62123000  0.57898000  1.0
  H  H32  1  0.04790000  0.70050000  0.09490000  1.0
  H  H33  1  0.04810000  0.69030000  0.17860000  1.0
  H  H34  1  0.97740000  0.90710000  0.08700000  1.0
  H  H35  1  0.98160000  0.90440000  0.17180000  1.0
  H  H36  1  0.88150000  0.73350000  0.15890000  1.0
  H  H37  1  0.88880000  0.70430000  0.07820000  1.0
  H  H38  1  0.21800000  0.19800000  0.19400000  1.0
  H  H39  1  0.54790000  0.20050000  0.09490000  1.0
  H  H40  1  0.54810000  0.19030000  0.17860000  1.0
  H  H41  1  0.47740000  0.40710000  0.08700000  1.0
  H  H42  1  0.48160000  0.40440000  0.17180000  1.0
  H  H43  1  0.38150000  0.23350000  0.15890000  1.0
  H  H44  1  0.38880000  0.20430000  0.07820000  1.0
  H  H45  1  0.71800000  0.69800000  0.19400000  1.0
  H  H46  1  0.95210000  0.70050000  0.40510000  1.0
  H  H47  1  0.95190000  0.69030000  0.32140000  1.0
  H  H48  1  0.02260000  0.90710000  0.41300000  1.0
  H  H49  1  0.01840000  0.90440000  0.32820000  1.0
  H  H50  1  0.11850000  0.73350000  0.34110000  1.0
  H  H51  1  0.11120000  0.70430000  0.42180000  1.0
  H  H52  1  0.78200000  0.19800000  0.30600000  1.0
  H  H53  1  0.45210000  0.20050000  0.40510000  1.0
  H  H54  1  0.45190000  0.19030000  0.32140000  1.0
  H  H55  1  0.52260000  0.40710000  0.41300000  1.0
  H  H56  1  0.51840000  0.40440000  0.32820000  1.0
  H  H57  1  0.61850000  0.23350000  0.34110000  1.0
  H  H58  1  0.61120000  0.20430000  0.42180000  1.0
  H  H59  1  0.28200000  0.69800000  0.30600000  1.0
  H  H60  1  0.95210000  0.29950000  0.90510000  1.0
  H  H61  1  0.95190000  0.30970000  0.82140000  1.0
  H  H62  1  0.02260000  0.09290000  0.91300000  1.0
  H  H63  1  0.01840000  0.09560000  0.82820000  1.0
  H  H64  1  0.11850000  0.26650000  0.84110000  1.0
  H  H65  1  0.11120000  0.29570000  0.92180000  1.0
  H  H66  1  0.78200000  0.80200000  0.80600000  1.0
  H  H67  1  0.45210000  0.79950000  0.90510000  1.0
  H  H68  1  0.45190000  0.80970000  0.82140000  1.0
  H  H69  1  0.52260000  0.59290000  0.91300000  1.0
  H  H70  1  0.51840000  0.59560000  0.82820000  1.0
  H  H71  1  0.61850000  0.76650000  0.84110000  1.0
  H  H72  1  0.61120000  0.79570000  0.92180000  1.0
  H  H73  1  0.28200000  0.30200000  0.80600000  1.0
  H  H74  1  0.04790000  0.29950000  0.59490000  1.0
  H  H75  1  0.04810000  0.30970000  0.67860000  1.0
  H  H76  1  0.97740000  0.09290000  0.58700000  1.0
  H  H77  1  0.98160000  0.09560000  0.67180000  1.0
  H  H78  1  0.88150000  0.26650000  0.65890000  1.0
  H  H79  1  0.88880000  0.29570000  0.57820000  1.0
  H  H80  1  0.21800000  0.80200000  0.69400000  1.0
  H  H81  1  0.54790000  0.79950000  0.59490000  1.0
  H  H82  1  0.54810000  0.80970000  0.67860000  1.0
  H  H83  1  0.47740000  0.59290000  0.58700000  1.0
  H  H84  1  0.48160000  0.59560000  0.67180000  1.0
  H  H85  1  0.38150000  0.76650000  0.65890000  1.0
  H  H86  1  0.38880000  0.79570000  0.57820000  1.0
  H  H87  1  0.71800000  0.30200000  0.69400000  1.0
  C  C88  1  0.05280000  0.75200000  0.13970000  1.0
  C  C89  1  0.97600000  0.84920000  0.12830000  1.0
  C  C90  1  0.88780000  0.77490000  0.11350000  1.0
  C  C91  1  0.55280000  0.25200000  0.13970000  1.0
  C  C92  1  0.47600000  0.34920000  0.12830000  1.0
  C  C93  1  0.38780000  0.27490000  0.11350000  1.0
  C  C94  1  0.94720000  0.75200000  0.36030000  1.0
  C  C95  1  0.02400000  0.84920000  0.37170000  1.0
  C  C96  1  0.11220000  0.77490000  0.38650000  1.0
  C  C97  1  0.44720000  0.25200000  0.36030000  1.0
  C  C98  1  0.52400000  0.34920000  0.37170000  1.0
  C  C99  1  0.61220000  0.27490000  0.38650000  1.0
  C  C100  1  0.94720000  0.24800000  0.86030000  1.0
  C  C101  1  0.02400000  0.15080000  0.87170000  1.0
  C  C102  1  0.11220000  0.22510000  0.88650000  1.0
  C  C103  1  0.44720000  0.74800000  0.86030000  1.0
  C  C104  1  0.52400000  0.65080000  0.87170000  1.0
  C  C105  1  0.61220000  0.72510000  0.88650000  1.0
  C  C106  1  0.05280000  0.24800000  0.63970000  1.0
  C  C107  1  0.97600000  0.15080000  0.62830000  1.0
  C  C108  1  0.88780000  0.22510000  0.61350000  1.0
  C  C109  1  0.55280000  0.74800000  0.63970000  1.0
  C  C110  1  0.47600000  0.65080000  0.62830000  1.0
  C  C111  1  0.38780000  0.72510000  0.61350000  1.0
  O  O112  1  0.79731000  0.00050000  0.12871000  1.0
  O  O113  1  0.22816000  0.71850000  0.16835000  1.0
  O  O114  1  0.16691000  0.89870000  0.23618000  1.0
  O  O115  1  0.21090000  0.14150000  0.19037000  1.0
  O  O116  1  0.16827000  0.92340000  0.10163000  1.0
  O  O117  1  0.79919000  0.93230000  0.00404000  1.0
  O  O118  1  0.71103000  0.79810000  0.07550000  1.0
  O  O119  1  0.29731000  0.50050000  0.12871000  1.0
  O  O120  1  0.72816000  0.21850000  0.16835000  1.0
  O  O121  1  0.66691000  0.39870000  0.23618000  1.0
  O  O122  1  0.71090000  0.64150000  0.19037000  1.0
  O  O123  1  0.66827000  0.42340000  0.10163000  1.0
  O  O124  1  0.29919000  0.43230000  0.00404000  1.0
  O  O125  1  0.21103000  0.29810000  0.07550000  1.0
  O  O126  1  0.20269000  0.00050000  0.37129000  1.0
  O  O127  1  0.77184000  0.71850000  0.33165000  1.0
  O  O128  1  0.83309000  0.89870000  0.26382000  1.0
  O  O129  1  0.78910000  0.14150000  0.30963000  1.0
  O  O130  1  0.83173000  0.92340000  0.39837000  1.0
  O  O131  1  0.20081000  0.93230000  0.49596000  1.0
  O  O132  1  0.28897000  0.79810000  0.42450000  1.0
  O  O133  1  0.70269000  0.50050000  0.37129000  1.0
  O  O134  1  0.27184000  0.21850000  0.33165000  1.0
  O  O135  1  0.33309000  0.39870000  0.26382000  1.0
  O  O136  1  0.28910000  0.64150000  0.30963000  1.0
  O  O137  1  0.33173000  0.42340000  0.39837000  1.0
  O  O138  1  0.70081000  0.43230000  0.49596000  1.0
  O  O139  1  0.78897000  0.29810000  0.42450000  1.0
  O  O140  1  0.20269000  0.99950000  0.87129000  1.0
  O  O141  1  0.77184000  0.28150000  0.83165000  1.0
  O  O142  1  0.83309000  0.10130000  0.76382000  1.0
  O  O143  1  0.78910000  0.85850000  0.80963000  1.0
  O  O144  1  0.83173000  0.07660000  0.89837000  1.0
  O  O145  1  0.20081000  0.06770000  0.99596000  1.0
  O  O146  1  0.28897000  0.20190000  0.92450000  1.0
  O  O147  1  0.70269000  0.49950000  0.87129000  1.0
  O  O148  1  0.27184000  0.78150000  0.83165000  1.0
  O  O149  1  0.33309000  0.60130000  0.76382000  1.0
  O  O150  1  0.28910000  0.35850000  0.80963000  1.0
  O  O151  1  0.33173000  0.57660000  0.89837000  1.0
  O  O152  1  0.70081000  0.56770000  0.99596000  1.0
  O  O153  1  0.78897000  0.70190000  0.92450000  1.0
  O  O154  1  0.79731000  0.99950000  0.62871000  1.0
  O  O155  1  0.22816000  0.28150000  0.66835000  1.0
  O  O156  1  0.16691000  0.10130000  0.73618000  1.0
  O  O157  1  0.21090000  0.85850000  0.69037000  1.0
  O  O158  1  0.16827000  0.07660000  0.60163000  1.0
  O  O159  1  0.79919000  0.06770000  0.50404000  1.0
  O  O160  1  0.71103000  0.20190000  0.57550000  1.0
  O  O161  1  0.29731000  0.49950000  0.62871000  1.0
  O  O162  1  0.72816000  0.78150000  0.66835000  1.0
  O  O163  1  0.66691000  0.60130000  0.73618000  1.0
  O  O164  1  0.71090000  0.35850000  0.69037000  1.0
  O  O165  1  0.66827000  0.57660000  0.60163000  1.0
  O  O166  1  0.29919000  0.56770000  0.50404000  1.0
  O  O167  1  0.21103000  0.70190000  0.57550000  1.0
