# generated using pymatgen
data_V2P2H7C3O7
_symmetry_space_group_name_H-M   'P 1'
_cell_length_a   15.27680000
_cell_length_b   10.22160000
_cell_length_c   18.62790000
_cell_angle_alpha   90.00000000
_cell_angle_beta   103.25200000
_cell_angle_gamma   90.00000000
_symmetry_Int_Tables_number   1
_chemical_formula_structural   V2P2H7C3O7
_chemical_formula_sum   'V16 P16 H56 C24 O56'
_cell_volume   2831.35086062
_cell_formula_units_Z   8
loop_
 _symmetry_equiv_pos_site_id
 _symmetry_equiv_pos_as_xyz
  1  'x, y, z'
loop_
 _atom_site_type_symbol
 _atom_site_label
 _atom_site_symmetry_multiplicity
 _atom_site_fract_x
 _atom_site_fract_y
 _atom_site_fract_z
 _atom_site_occupancy
  V  V0  1  0.74870000  0.04535000  0.21455000  1.0
  V  V1  1  0.83739000  0.11735000  0.41440000  1.0
  V  V2  1  0.24870000  0.54535000  0.21455000  1.0
  V  V3  1  0.33739000  0.61735000  0.41440000  1.0
  V  V4  1  0.25130000  0.04535000  0.28545000  1.0
  V  V5  1  0.16261000  0.11735000  0.08560000  1.0
  V  V6  1  0.75130000  0.54535000  0.28545000  1.0
  V  V7  1  0.66261000  0.61735000  0.08560000  1.0
  V  V8  1  0.25130000  0.95465000  0.78545000  1.0
  V  V9  1  0.16261000  0.88265000  0.58560000  1.0
  V  V10  1  0.75130000  0.45465000  0.78545000  1.0
  V  V11  1  0.66261000  0.38265000  0.58560000  1.0
  V  V12  1  0.74870000  0.95465000  0.71455000  1.0
  V  V13  1  0.83739000  0.88265000  0.91440000  1.0
  V  V14  1  0.24870000  0.45465000  0.71455000  1.0
  V  V15  1  0.33739000  0.38265000  0.91440000  1.0
  P  P16  1  0.66366000  0.33190000  0.16526000  1.0
  P  P17  1  0.28813000  0.37985000  0.07714000  1.0
  P  P18  1  0.16366000  0.83190000  0.16526000  1.0
  P  P19  1  0.78813000  0.87985000  0.07714000  1.0
  P  P20  1  0.33634000  0.33190000  0.33474000  1.0
  P  P21  1  0.71187000  0.37985000  0.42286000  1.0
  P  P22  1  0.83634000  0.83190000  0.33474000  1.0
  P  P23  1  0.21187000  0.87985000  0.42286000  1.0
  P  P24  1  0.33634000  0.66810000  0.83474000  1.0
  P  P25  1  0.71187000  0.62015000  0.92286000  1.0
  P  P26  1  0.83634000  0.16810000  0.83474000  1.0
  P  P27  1  0.21187000  0.12015000  0.92286000  1.0
  P  P28  1  0.66366000  0.66810000  0.66526000  1.0
  P  P29  1  0.28813000  0.62015000  0.57714000  1.0
  P  P30  1  0.16366000  0.16810000  0.66526000  1.0
  P  P31  1  0.78813000  0.12015000  0.57714000  1.0
  H  H32  1  0.54930000  0.20380000  0.09930000  1.0
  H  H33  1  0.54770000  0.20310000  0.18470000  1.0
  H  H34  1  0.37880000  0.23780000  0.15770000  1.0
  H  H35  1  0.38810000  0.21130000  0.07530000  1.0
  H  H36  1  0.47780000  0.41100000  0.08470000  1.0
  H  H37  1  0.47810000  0.41340000  0.17080000  1.0
  H  H38  1  0.78800000  0.20000000  0.30300000  1.0
  H  H39  1  0.04930000  0.70380000  0.09930000  1.0
  H  H40  1  0.04770000  0.70310000  0.18470000  1.0
  H  H41  1  0.87880000  0.73780000  0.15770000  1.0
  H  H42  1  0.88810000  0.71130000  0.07530000  1.0
  H  H43  1  0.97780000  0.91100000  0.08470000  1.0
  H  H44  1  0.97810000  0.91340000  0.17080000  1.0
  H  H45  1  0.28800000  0.70000000  0.30300000  1.0
  H  H46  1  0.45070000  0.20380000  0.40070000  1.0
  H  H47  1  0.45230000  0.20310000  0.31530000  1.0
  H  H48  1  0.62120000  0.23780000  0.34230000  1.0
  H  H49  1  0.61190000  0.21130000  0.42470000  1.0
  H  H50  1  0.52220000  0.41100000  0.41530000  1.0
  H  H51  1  0.52190000  0.41340000  0.32920000  1.0
  H  H52  1  0.21200000  0.20000000  0.19700000  1.0
  H  H53  1  0.95070000  0.70380000  0.40070000  1.0
  H  H54  1  0.95230000  0.70310000  0.31530000  1.0
  H  H55  1  0.12120000  0.73780000  0.34230000  1.0
  H  H56  1  0.11190000  0.71130000  0.42470000  1.0
  H  H57  1  0.02220000  0.91100000  0.41530000  1.0
  H  H58  1  0.02190000  0.91340000  0.32920000  1.0
  H  H59  1  0.71200000  0.70000000  0.19700000  1.0
  H  H60  1  0.45070000  0.79620000  0.90070000  1.0
  H  H61  1  0.45230000  0.79690000  0.81530000  1.0
  H  H62  1  0.62120000  0.76220000  0.84230000  1.0
  H  H63  1  0.61190000  0.78870000  0.92470000  1.0
  H  H64  1  0.52220000  0.58900000  0.91530000  1.0
  H  H65  1  0.52190000  0.58660000  0.82920000  1.0
  H  H66  1  0.21200000  0.80000000  0.69700000  1.0
  H  H67  1  0.95070000  0.29620000  0.90070000  1.0
  H  H68  1  0.95230000  0.29690000  0.81530000  1.0
  H  H69  1  0.12120000  0.26220000  0.84230000  1.0
  H  H70  1  0.11190000  0.28870000  0.92470000  1.0
  H  H71  1  0.02220000  0.08900000  0.91530000  1.0
  H  H72  1  0.02190000  0.08660000  0.82920000  1.0
  H  H73  1  0.71200000  0.30000000  0.69700000  1.0
  H  H74  1  0.54930000  0.79620000  0.59930000  1.0
  H  H75  1  0.54770000  0.79690000  0.68470000  1.0
  H  H76  1  0.37880000  0.76220000  0.65770000  1.0
  H  H77  1  0.38810000  0.78870000  0.57530000  1.0
  H  H78  1  0.47780000  0.58900000  0.58470000  1.0
  H  H79  1  0.47810000  0.58660000  0.67080000  1.0
  H  H80  1  0.78800000  0.80000000  0.80300000  1.0
  H  H81  1  0.04930000  0.29620000  0.59930000  1.0
  H  H82  1  0.04770000  0.29690000  0.68470000  1.0
  H  H83  1  0.87880000  0.26220000  0.65770000  1.0
  H  H84  1  0.88810000  0.28870000  0.57530000  1.0
  H  H85  1  0.97780000  0.08900000  0.58470000  1.0
  H  H86  1  0.97810000  0.08660000  0.67080000  1.0
  H  H87  1  0.28800000  0.30000000  0.80300000  1.0
  C  C88  1  0.55380000  0.26030000  0.14320000  1.0
  C  C89  1  0.38560000  0.28090000  0.11170000  1.0
  C  C90  1  0.47470000  0.35560000  0.12770000  1.0
  C  C91  1  0.05380000  0.76030000  0.14320000  1.0
  C  C92  1  0.88560000  0.78090000  0.11170000  1.0
  C  C93  1  0.97470000  0.85560000  0.12770000  1.0
  C  C94  1  0.44620000  0.26030000  0.35680000  1.0
  C  C95  1  0.61440000  0.28090000  0.38830000  1.0
  C  C96  1  0.52530000  0.35560000  0.37230000  1.0
  C  C97  1  0.94620000  0.76030000  0.35680000  1.0
  C  C98  1  0.11440000  0.78090000  0.38830000  1.0
  C  C99  1  0.02530000  0.85560000  0.37230000  1.0
  C  C100  1  0.44620000  0.73970000  0.85680000  1.0
  C  C101  1  0.61440000  0.71910000  0.88830000  1.0
  C  C102  1  0.52530000  0.64440000  0.87230000  1.0
  C  C103  1  0.94620000  0.23970000  0.85680000  1.0
  C  C104  1  0.11440000  0.21910000  0.88830000  1.0
  C  C105  1  0.02530000  0.14440000  0.87230000  1.0
  C  C106  1  0.55380000  0.73970000  0.64320000  1.0
  C  C107  1  0.38560000  0.71910000  0.61170000  1.0
  C  C108  1  0.47470000  0.64440000  0.62770000  1.0
  C  C109  1  0.05380000  0.23970000  0.64320000  1.0
  C  C110  1  0.88560000  0.21910000  0.61170000  1.0
  C  C111  1  0.97470000  0.14440000  0.62770000  1.0
  O  O112  1  0.73201000  0.22150000  0.16855000  1.0
  O  O113  1  0.29047000  0.50280000  0.12522000  1.0
  O  O114  1  0.67390000  0.39950000  0.23989000  1.0
  O  O115  1  0.79070000  0.14220000  0.30808000  1.0
  O  O116  1  0.67346000  0.42700000  0.10409000  1.0
  O  O117  1  0.20484000  0.29820000  0.07682000  1.0
  O  O118  1  0.29221000  0.42870000  0.00033000  1.0
  O  O119  1  0.23201000  0.72150000  0.16855000  1.0
  O  O120  1  0.79047000  0.00280000  0.12522000  1.0
  O  O121  1  0.17390000  0.89950000  0.23989000  1.0
  O  O122  1  0.29070000  0.64220000  0.30808000  1.0
  O  O123  1  0.17346000  0.92700000  0.10409000  1.0
  O  O124  1  0.70484000  0.79820000  0.07682000  1.0
  O  O125  1  0.79221000  0.92870000  0.00033000  1.0
  O  O126  1  0.26799000  0.22150000  0.33145000  1.0
  O  O127  1  0.70953000  0.50280000  0.37478000  1.0
  O  O128  1  0.32610000  0.39950000  0.26011000  1.0
  O  O129  1  0.20930000  0.14220000  0.19192000  1.0
  O  O130  1  0.32654000  0.42700000  0.39591000  1.0
  O  O131  1  0.79516000  0.29820000  0.42318000  1.0
  O  O132  1  0.70779000  0.42870000  0.49967000  1.0
  O  O133  1  0.76799000  0.72150000  0.33145000  1.0
  O  O134  1  0.20953000  0.00280000  0.37478000  1.0
  O  O135  1  0.82610000  0.89950000  0.26011000  1.0
  O  O136  1  0.70930000  0.64220000  0.19192000  1.0
  O  O137  1  0.82654000  0.92700000  0.39591000  1.0
  O  O138  1  0.29516000  0.79820000  0.42318000  1.0
  O  O139  1  0.20779000  0.92870000  0.49967000  1.0
  O  O140  1  0.26799000  0.77850000  0.83145000  1.0
  O  O141  1  0.70953000  0.49720000  0.87478000  1.0
  O  O142  1  0.32610000  0.60050000  0.76011000  1.0
  O  O143  1  0.20930000  0.85780000  0.69192000  1.0
  O  O144  1  0.32654000  0.57300000  0.89591000  1.0
  O  O145  1  0.79516000  0.70180000  0.92318000  1.0
  O  O146  1  0.70779000  0.57130000  0.99967000  1.0
  O  O147  1  0.76799000  0.27850000  0.83145000  1.0
  O  O148  1  0.20953000  0.99720000  0.87478000  1.0
  O  O149  1  0.82610000  0.10050000  0.76011000  1.0
  O  O150  1  0.70930000  0.35780000  0.69192000  1.0
  O  O151  1  0.82654000  0.07300000  0.89591000  1.0
  O  O152  1  0.29516000  0.20180000  0.92318000  1.0
  O  O153  1  0.20779000  0.07130000  0.99967000  1.0
  O  O154  1  0.73201000  0.77850000  0.66855000  1.0
  O  O155  1  0.29047000  0.49720000  0.62522000  1.0
  O  O156  1  0.67390000  0.60050000  0.73989000  1.0
  O  O157  1  0.79070000  0.85780000  0.80808000  1.0
  O  O158  1  0.67346000  0.57300000  0.60409000  1.0
  O  O159  1  0.20484000  0.70180000  0.57682000  1.0
  O  O160  1  0.29221000  0.57130000  0.50033000  1.0
  O  O161  1  0.23201000  0.27850000  0.66855000  1.0
  O  O162  1  0.79047000  0.99720000  0.62522000  1.0
  O  O163  1  0.17390000  0.10050000  0.73989000  1.0
  O  O164  1  0.29070000  0.35780000  0.80808000  1.0
  O  O165  1  0.17346000  0.07300000  0.60409000  1.0
  O  O166  1  0.70484000  0.20180000  0.57682000  1.0
  O  O167  1  0.79221000  0.07130000  0.50033000  1.0
