# generated using pymatgen
data_NdH4C5O8
_symmetry_space_group_name_H-M   'P 1'
_cell_length_a   6.10920000
_cell_length_b   7.68660000
_cell_length_c   22.69870000
_cell_angle_alpha   90.00000000
_cell_angle_beta   91.65700000
_cell_angle_gamma   90.00000000
_symmetry_Int_Tables_number   1
_chemical_formula_structural   NdH4C5O8
_chemical_formula_sum   'Nd4 H16 C20 O32'
_cell_volume   1065.46200798
_cell_formula_units_Z   4
loop_
 _symmetry_equiv_pos_site_id
 _symmetry_equiv_pos_as_xyz
  1  'x, y, z'
loop_
 _atom_site_type_symbol
 _atom_site_label
 _atom_site_symmetry_multiplicity
 _atom_site_fract_x
 _atom_site_fract_y
 _atom_site_fract_z
 _atom_site_occupancy
  Nd  Nd0  1  0.45527000  0.50320000  0.85402000  1.0
  Nd  Nd1  1  0.54473000  0.00320000  0.64598000  1.0
  Nd  Nd2  1  0.54473000  0.49680000  0.14598000  1.0
  Nd  Nd3  1  0.45527000  0.99680000  0.35402000  1.0
  H  H4  1  0.30200000  0.72300000  0.76100000  1.0
  H  H5  1  0.42300000  0.63300000  0.61200000  1.0
  H  H6  1  0.04310000  0.47840000  0.71750000  1.0
  H  H7  1  0.12250000  0.56910000  0.62440000  1.0
  H  H8  1  0.69800000  0.22300000  0.73900000  1.0
  H  H9  1  0.57700000  0.13300000  0.88800000  1.0
  H  H10  1  0.95690000  0.97840000  0.78250000  1.0
  H  H11  1  0.87750000  0.06910000  0.87560000  1.0
  H  H12  1  0.69800000  0.27700000  0.23900000  1.0
  H  H13  1  0.57700000  0.36700000  0.38800000  1.0
  H  H14  1  0.95690000  0.52160000  0.28250000  1.0
  H  H15  1  0.87750000  0.43090000  0.37560000  1.0
  H  H16  1  0.30200000  0.77700000  0.26100000  1.0
  H  H17  1  0.42300000  0.86700000  0.11200000  1.0
  H  H18  1  0.04310000  0.02160000  0.21750000  1.0
  H  H19  1  0.12250000  0.93090000  0.12440000  1.0
  C  C20  1  0.36630000  0.39480000  0.71110000  1.0
  C  C21  1  0.18490000  0.53710000  0.71470000  1.0
  C  C22  1  0.18380000  0.64230000  0.65620000  1.0
  C  C23  1  0.04670000  0.81150000  0.65950000  1.0
  C  C24  1  0.58370000  0.57590000  0.99880000  1.0
  C  C25  1  0.63370000  0.89480000  0.78890000  1.0
  C  C26  1  0.81510000  0.03710000  0.78530000  1.0
  C  C27  1  0.81620000  0.14230000  0.84380000  1.0
  C  C28  1  0.95330000  0.31150000  0.84050000  1.0
  C  C29  1  0.41630000  0.07590000  0.50120000  1.0
  C  C30  1  0.63370000  0.60520000  0.28890000  1.0
  C  C31  1  0.81510000  0.46290000  0.28530000  1.0
  C  C32  1  0.81620000  0.35770000  0.34380000  1.0
  C  C33  1  0.95330000  0.18850000  0.34050000  1.0
  C  C34  1  0.41630000  0.42410000  0.00120000  1.0
  C  C35  1  0.36630000  0.10520000  0.21110000  1.0
  C  C36  1  0.18490000  0.96290000  0.21470000  1.0
  C  C37  1  0.18380000  0.85770000  0.15620000  1.0
  C  C38  1  0.04670000  0.68850000  0.15950000  1.0
  C  C39  1  0.58370000  0.92410000  0.49880000  1.0
  O  O40  1  0.51510000  0.40110000  0.75160000  1.0
  O  O41  1  0.35790000  0.28580000  0.67040000  1.0
  O  O42  1  0.21890000  0.64080000  0.76680000  1.0
  O  O43  1  0.40500000  0.69140000  0.64170000  1.0
  O  O44  1  0.14880000  0.95320000  0.65390000  1.0
  O  O45  1  0.84530000  0.79560000  0.66620000  1.0
  O  O46  1  0.62340000  0.63260000  0.94720000  1.0
  O  O47  1  0.66440000  0.63110000  0.04710000  1.0
  O  O48  1  0.48490000  0.90110000  0.74840000  1.0
  O  O49  1  0.64210000  0.78580000  0.82960000  1.0
  O  O50  1  0.78110000  0.14080000  0.73320000  1.0
  O  O51  1  0.59500000  0.19140000  0.85830000  1.0
  O  O52  1  0.85120000  0.45320000  0.84610000  1.0
  O  O53  1  0.15470000  0.29560000  0.83380000  1.0
  O  O54  1  0.37660000  0.13260000  0.55280000  1.0
  O  O55  1  0.33560000  0.13110000  0.45290000  1.0
  O  O56  1  0.48490000  0.59890000  0.24840000  1.0
  O  O57  1  0.64210000  0.71420000  0.32960000  1.0
  O  O58  1  0.78110000  0.35920000  0.23320000  1.0
  O  O59  1  0.59500000  0.30860000  0.35830000  1.0
  O  O60  1  0.85120000  0.04680000  0.34610000  1.0
  O  O61  1  0.15470000  0.20440000  0.33380000  1.0
  O  O62  1  0.37660000  0.36740000  0.05280000  1.0
  O  O63  1  0.33560000  0.36890000  0.95290000  1.0
  O  O64  1  0.51510000  0.09890000  0.25160000  1.0
  O  O65  1  0.35790000  0.21420000  0.17040000  1.0
  O  O66  1  0.21890000  0.85920000  0.26680000  1.0
  O  O67  1  0.40500000  0.80860000  0.14170000  1.0
  O  O68  1  0.14880000  0.54680000  0.15390000  1.0
  O  O69  1  0.84530000  0.70440000  0.16620000  1.0
  O  O70  1  0.62340000  0.86740000  0.44720000  1.0
  O  O71  1  0.66440000  0.86890000  0.54710000  1.0
