# generated using pymatgen
data_Zr3H16C36(OF2)12
_symmetry_space_group_name_H-M   'P 1'
_cell_length_a   24.39360000
_cell_length_b   24.39360000
_cell_length_c   14.57100000
_cell_angle_alpha   90.00000000
_cell_angle_beta   90.00000000
_cell_angle_gamma   90.00000000
_symmetry_Int_Tables_number   1
_chemical_formula_structural   Zr3H16C36(OF2)12
_chemical_formula_sum   'Zr12 H64 C144 O48 F96'
_cell_volume   8670.44034211
_cell_formula_units_Z   4
loop_
 _symmetry_equiv_pos_site_id
 _symmetry_equiv_pos_as_xyz
  1  'x, y, z'
loop_
 _atom_site_type_symbol
 _atom_site_label
 _atom_site_symmetry_multiplicity
 _atom_site_fract_x
 _atom_site_fract_y
 _atom_site_fract_z
 _atom_site_occupancy
  Zr  Zr0  1  0.50000000  0.09986000  0.00000000  1.0
  Zr  Zr1  1  0.50000000  0.90014000  0.00000000  1.0
  Zr  Zr2  1  0.90014000  0.50000000  0.50000000  1.0
  Zr  Zr3  1  0.09986000  0.50000000  0.50000000  1.0
  Zr  Zr4  1  0.42764000  0.00000000  0.12182000  1.0
  Zr  Zr5  1  0.57236000  0.00000000  0.12182000  1.0
  Zr  Zr6  1  0.00000000  0.42764000  0.62182000  1.0
  Zr  Zr7  1  0.00000000  0.57236000  0.62182000  1.0
  Zr  Zr8  1  0.57236000  0.00000000  0.87818000  1.0
  Zr  Zr9  1  0.42764000  0.00000000  0.87818000  1.0
  Zr  Zr10  1  0.00000000  0.42764000  0.37818000  1.0
  Zr  Zr11  1  0.00000000  0.57236000  0.37818000  1.0
  H  H12  1  0.39890000  0.23500000  0.09440000  1.0
  H  H13  1  0.33100000  0.12580000  0.27280000  1.0
  H  H14  1  0.26880000  0.19280000  0.32030000  1.0
  H  H15  1  0.33610000  0.30060000  0.14360000  1.0
  H  H16  1  0.60110000  0.76500000  0.09440000  1.0
  H  H17  1  0.66900000  0.87420000  0.27280000  1.0
  H  H18  1  0.73120000  0.80720000  0.32030000  1.0
  H  H19  1  0.66390000  0.69940000  0.14360000  1.0
  H  H20  1  0.76500000  0.39890000  0.59440000  1.0
  H  H21  1  0.87420000  0.33100000  0.77280000  1.0
  H  H22  1  0.80720000  0.26880000  0.82030000  1.0
  H  H23  1  0.69940000  0.33610000  0.64360000  1.0
  H  H24  1  0.23500000  0.60110000  0.59440000  1.0
  H  H25  1  0.12580000  0.66900000  0.77280000  1.0
  H  H26  1  0.19280000  0.73120000  0.82030000  1.0
  H  H27  1  0.30060000  0.66390000  0.64360000  1.0
  H  H28  1  0.60110000  0.23500000  0.90560000  1.0
  H  H29  1  0.66900000  0.12580000  0.72720000  1.0
  H  H30  1  0.73120000  0.19280000  0.67970000  1.0
  H  H31  1  0.66390000  0.30060000  0.85640000  1.0
  H  H32  1  0.39890000  0.76500000  0.90560000  1.0
  H  H33  1  0.33100000  0.87420000  0.72720000  1.0
  H  H34  1  0.26880000  0.80720000  0.67970000  1.0
  H  H35  1  0.33610000  0.69940000  0.85640000  1.0
  H  H36  1  0.23500000  0.39890000  0.40560000  1.0
  H  H37  1  0.12580000  0.33100000  0.22720000  1.0
  H  H38  1  0.19280000  0.26880000  0.17970000  1.0
  H  H39  1  0.30060000  0.33610000  0.35640000  1.0
  H  H40  1  0.76500000  0.60110000  0.40560000  1.0
  H  H41  1  0.87420000  0.66900000  0.22720000  1.0
  H  H42  1  0.80720000  0.73120000  0.17970000  1.0
  H  H43  1  0.69940000  0.66390000  0.35640000  1.0
  H  H44  1  0.60110000  0.76500000  0.90560000  1.0
  H  H45  1  0.66900000  0.87420000  0.72720000  1.0
  H  H46  1  0.73120000  0.80720000  0.67970000  1.0
  H  H47  1  0.66390000  0.69940000  0.85640000  1.0
  H  H48  1  0.39890000  0.23500000  0.90560000  1.0
  H  H49  1  0.33100000  0.12580000  0.72720000  1.0
  H  H50  1  0.26880000  0.19280000  0.67970000  1.0
  H  H51  1  0.33610000  0.30060000  0.85640000  1.0
  H  H52  1  0.23500000  0.60110000  0.40560000  1.0
  H  H53  1  0.12580000  0.66900000  0.22720000  1.0
  H  H54  1  0.19280000  0.73120000  0.17970000  1.0
  H  H55  1  0.30060000  0.66390000  0.35640000  1.0
  H  H56  1  0.76500000  0.39890000  0.40560000  1.0
  H  H57  1  0.87420000  0.33100000  0.22720000  1.0
  H  H58  1  0.80720000  0.26880000  0.17970000  1.0
  H  H59  1  0.69940000  0.33610000  0.35640000  1.0
  H  H60  1  0.39890000  0.76500000  0.09440000  1.0
  H  H61  1  0.33100000  0.87420000  0.27280000  1.0
  H  H62  1  0.26880000  0.80720000  0.32030000  1.0
  H  H63  1  0.33610000  0.69940000  0.14360000  1.0
  H  H64  1  0.60110000  0.23500000  0.09440000  1.0
  H  H65  1  0.66900000  0.12580000  0.27280000  1.0
  H  H66  1  0.73120000  0.19280000  0.32030000  1.0
  H  H67  1  0.66390000  0.30060000  0.14360000  1.0
  H  H68  1  0.76500000  0.60110000  0.59440000  1.0
  H  H69  1  0.87420000  0.66900000  0.77280000  1.0
  H  H70  1  0.80720000  0.73120000  0.82030000  1.0
  H  H71  1  0.69940000  0.66390000  0.64360000  1.0
  H  H72  1  0.23500000  0.39890000  0.59440000  1.0
  H  H73  1  0.12580000  0.33100000  0.77280000  1.0
  H  H74  1  0.19280000  0.26880000  0.82030000  1.0
  H  H75  1  0.30060000  0.33610000  0.64360000  1.0
  C  C76  1  0.29600000  0.25370000  0.23700000  1.0
  C  C77  1  0.33510000  0.26500000  0.16990000  1.0
  C  C78  1  0.37250000  0.22650000  0.14010000  1.0
  C  C79  1  0.36980000  0.17380000  0.18050000  1.0
  C  C80  1  0.33210000  0.16140000  0.24640000  1.0
  C  C81  1  0.29510000  0.20140000  0.27450000  1.0
  C  C82  1  0.40760000  0.13260000  0.13860000  1.0
  C  C83  1  0.34060000  0.31970000  0.12340000  1.0
  C  C84  1  0.25620000  0.18190000  0.34740000  1.0
  C  C85  1  0.70400000  0.74630000  0.23700000  1.0
  C  C86  1  0.66490000  0.73500000  0.16990000  1.0
  C  C87  1  0.62750000  0.77350000  0.14010000  1.0
  C  C88  1  0.63020000  0.82620000  0.18050000  1.0
  C  C89  1  0.66790000  0.83860000  0.24640000  1.0
  C  C90  1  0.70490000  0.79860000  0.27450000  1.0
  C  C91  1  0.59240000  0.86740000  0.13860000  1.0
  C  C92  1  0.65940000  0.68030000  0.12340000  1.0
  C  C93  1  0.74380000  0.81810000  0.34740000  1.0
  C  C94  1  0.74630000  0.29600000  0.73700000  1.0
  C  C95  1  0.73500000  0.33510000  0.66990000  1.0
  C  C96  1  0.77350000  0.37250000  0.64010000  1.0
  C  C97  1  0.82620000  0.36980000  0.68050000  1.0
  C  C98  1  0.83860000  0.33210000  0.74640000  1.0
  C  C99  1  0.79860000  0.29510000  0.77450000  1.0
  C  C100  1  0.86740000  0.40760000  0.63860000  1.0
  C  C101  1  0.68030000  0.34060000  0.62340000  1.0
  C  C102  1  0.81810000  0.25620000  0.84740000  1.0
  C  C103  1  0.25370000  0.70400000  0.73700000  1.0
  C  C104  1  0.26500000  0.66490000  0.66990000  1.0
  C  C105  1  0.22650000  0.62750000  0.64010000  1.0
  C  C106  1  0.17380000  0.63020000  0.68050000  1.0
  C  C107  1  0.16140000  0.66790000  0.74640000  1.0
  C  C108  1  0.20140000  0.70490000  0.77450000  1.0
  C  C109  1  0.13260000  0.59240000  0.63860000  1.0
  C  C110  1  0.31970000  0.65940000  0.62340000  1.0
  C  C111  1  0.18190000  0.74380000  0.84740000  1.0
  C  C112  1  0.70400000  0.25370000  0.76300000  1.0
  C  C113  1  0.66490000  0.26500000  0.83010000  1.0
  C  C114  1  0.62750000  0.22650000  0.85990000  1.0
  C  C115  1  0.63020000  0.17380000  0.81950000  1.0
  C  C116  1  0.66790000  0.16140000  0.75360000  1.0
  C  C117  1  0.70490000  0.20140000  0.72550000  1.0
  C  C118  1  0.59240000  0.13260000  0.86140000  1.0
  C  C119  1  0.65940000  0.31970000  0.87660000  1.0
  C  C120  1  0.74380000  0.18190000  0.65260000  1.0
  C  C121  1  0.29600000  0.74630000  0.76300000  1.0
  C  C122  1  0.33510000  0.73500000  0.83010000  1.0
  C  C123  1  0.37250000  0.77350000  0.85990000  1.0
  C  C124  1  0.36980000  0.82620000  0.81950000  1.0
  C  C125  1  0.33210000  0.83860000  0.75360000  1.0
  C  C126  1  0.29510000  0.79860000  0.72550000  1.0
  C  C127  1  0.40760000  0.86740000  0.86140000  1.0
  C  C128  1  0.34060000  0.68030000  0.87660000  1.0
  C  C129  1  0.25620000  0.81810000  0.65260000  1.0
  C  C130  1  0.25370000  0.29600000  0.26300000  1.0
  C  C131  1  0.26500000  0.33510000  0.33010000  1.0
  C  C132  1  0.22650000  0.37250000  0.35990000  1.0
  C  C133  1  0.17380000  0.36980000  0.31950000  1.0
  C  C134  1  0.16140000  0.33210000  0.25360000  1.0
  C  C135  1  0.20140000  0.29510000  0.22550000  1.0
  C  C136  1  0.13260000  0.40760000  0.36140000  1.0
  C  C137  1  0.31970000  0.34060000  0.37660000  1.0
  C  C138  1  0.18190000  0.25620000  0.15260000  1.0
  C  C139  1  0.74630000  0.70400000  0.26300000  1.0
  C  C140  1  0.73500000  0.66490000  0.33010000  1.0
  C  C141  1  0.77350000  0.62750000  0.35990000  1.0
  C  C142  1  0.82620000  0.63020000  0.31950000  1.0
  C  C143  1  0.83860000  0.66790000  0.25360000  1.0
  C  C144  1  0.79860000  0.70490000  0.22550000  1.0
  C  C145  1  0.86740000  0.59240000  0.36140000  1.0
  C  C146  1  0.68030000  0.65940000  0.37660000  1.0
  C  C147  1  0.81810000  0.74380000  0.15260000  1.0
  C  C148  1  0.70400000  0.74630000  0.76300000  1.0
  C  C149  1  0.66490000  0.73500000  0.83010000  1.0
  C  C150  1  0.62750000  0.77350000  0.85990000  1.0
  C  C151  1  0.63020000  0.82620000  0.81950000  1.0
  C  C152  1  0.66790000  0.83860000  0.75360000  1.0
  C  C153  1  0.70490000  0.79860000  0.72550000  1.0
  C  C154  1  0.59240000  0.86740000  0.86140000  1.0
  C  C155  1  0.65940000  0.68030000  0.87660000  1.0
  C  C156  1  0.74380000  0.81810000  0.65260000  1.0
  C  C157  1  0.29600000  0.25370000  0.76300000  1.0
  C  C158  1  0.33510000  0.26500000  0.83010000  1.0
  C  C159  1  0.37250000  0.22650000  0.85990000  1.0
  C  C160  1  0.36980000  0.17380000  0.81950000  1.0
  C  C161  1  0.33210000  0.16140000  0.75360000  1.0
  C  C162  1  0.29510000  0.20140000  0.72550000  1.0
  C  C163  1  0.40760000  0.13260000  0.86140000  1.0
  C  C164  1  0.34060000  0.31970000  0.87660000  1.0
  C  C165  1  0.25620000  0.18190000  0.65260000  1.0
  C  C166  1  0.25370000  0.70400000  0.26300000  1.0
  C  C167  1  0.26500000  0.66490000  0.33010000  1.0
  C  C168  1  0.22650000  0.62750000  0.35990000  1.0
  C  C169  1  0.17380000  0.63020000  0.31950000  1.0
  C  C170  1  0.16140000  0.66790000  0.25360000  1.0
  C  C171  1  0.20140000  0.70490000  0.22550000  1.0
  C  C172  1  0.13260000  0.59240000  0.36140000  1.0
  C  C173  1  0.31970000  0.65940000  0.37660000  1.0
  C  C174  1  0.18190000  0.74380000  0.15260000  1.0
  C  C175  1  0.74630000  0.29600000  0.26300000  1.0
  C  C176  1  0.73500000  0.33510000  0.33010000  1.0
  C  C177  1  0.77350000  0.37250000  0.35990000  1.0
  C  C178  1  0.82620000  0.36980000  0.31950000  1.0
  C  C179  1  0.83860000  0.33210000  0.25360000  1.0
  C  C180  1  0.79860000  0.29510000  0.22550000  1.0
  C  C181  1  0.86740000  0.40760000  0.36140000  1.0
  C  C182  1  0.68030000  0.34060000  0.37660000  1.0
  C  C183  1  0.81810000  0.25620000  0.15260000  1.0
  C  C184  1  0.29600000  0.74630000  0.23700000  1.0
  C  C185  1  0.33510000  0.73500000  0.16990000  1.0
  C  C186  1  0.37250000  0.77350000  0.14010000  1.0
  C  C187  1  0.36980000  0.82620000  0.18050000  1.0
  C  C188  1  0.33210000  0.83860000  0.24640000  1.0
  C  C189  1  0.29510000  0.79860000  0.27450000  1.0
  C  C190  1  0.40760000  0.86740000  0.13860000  1.0
  C  C191  1  0.34060000  0.68030000  0.12340000  1.0
  C  C192  1  0.25620000  0.81810000  0.34740000  1.0
  C  C193  1  0.70400000  0.25370000  0.23700000  1.0
  C  C194  1  0.66490000  0.26500000  0.16990000  1.0
  C  C195  1  0.62750000  0.22650000  0.14010000  1.0
  C  C196  1  0.63020000  0.17380000  0.18050000  1.0
  C  C197  1  0.66790000  0.16140000  0.24640000  1.0
  C  C198  1  0.70490000  0.20140000  0.27450000  1.0
  C  C199  1  0.59240000  0.13260000  0.13860000  1.0
  C  C200  1  0.65940000  0.31970000  0.12340000  1.0
  C  C201  1  0.74380000  0.18190000  0.34740000  1.0
  C  C202  1  0.74630000  0.70400000  0.73700000  1.0
  C  C203  1  0.73500000  0.66490000  0.66990000  1.0
  C  C204  1  0.77350000  0.62750000  0.64010000  1.0
  C  C205  1  0.82620000  0.63020000  0.68050000  1.0
  C  C206  1  0.83860000  0.66790000  0.74640000  1.0
  C  C207  1  0.79860000  0.70490000  0.77450000  1.0
  C  C208  1  0.86740000  0.59240000  0.63860000  1.0
  C  C209  1  0.68030000  0.65940000  0.62340000  1.0
  C  C210  1  0.81810000  0.74380000  0.84740000  1.0
  C  C211  1  0.25370000  0.29600000  0.73700000  1.0
  C  C212  1  0.26500000  0.33510000  0.66990000  1.0
  C  C213  1  0.22650000  0.37250000  0.64010000  1.0
  C  C214  1  0.17380000  0.36980000  0.68050000  1.0
  C  C215  1  0.16140000  0.33210000  0.74640000  1.0
  C  C216  1  0.20140000  0.29510000  0.77450000  1.0
  C  C217  1  0.13260000  0.40760000  0.63860000  1.0
  C  C218  1  0.31970000  0.34060000  0.62340000  1.0
  C  C219  1  0.18190000  0.25620000  0.84740000  1.0
  O  O220  1  0.44580000  0.14630000  0.09230000  1.0
  O  O221  1  0.39780000  0.08310000  0.16930000  1.0
  O  O222  1  0.55420000  0.85370000  0.09230000  1.0
  O  O223  1  0.60220000  0.91690000  0.16930000  1.0
  O  O224  1  0.85370000  0.44580000  0.59230000  1.0
  O  O225  1  0.91690000  0.39780000  0.66930000  1.0
  O  O226  1  0.14630000  0.55420000  0.59230000  1.0
  O  O227  1  0.08310000  0.60220000  0.66930000  1.0
  O  O228  1  0.55420000  0.14630000  0.90770000  1.0
  O  O229  1  0.60220000  0.08310000  0.83070000  1.0
  O  O230  1  0.44580000  0.85370000  0.90770000  1.0
  O  O231  1  0.39780000  0.91690000  0.83070000  1.0
  O  O232  1  0.14630000  0.44580000  0.40770000  1.0
  O  O233  1  0.08310000  0.39780000  0.33070000  1.0
  O  O234  1  0.85370000  0.55420000  0.40770000  1.0
  O  O235  1  0.91690000  0.60220000  0.33070000  1.0
  O  O236  1  0.55420000  0.85370000  0.90770000  1.0
  O  O237  1  0.60220000  0.91690000  0.83070000  1.0
  O  O238  1  0.44580000  0.14630000  0.90770000  1.0
  O  O239  1  0.39780000  0.08310000  0.83070000  1.0
  O  O240  1  0.14630000  0.55420000  0.40770000  1.0
  O  O241  1  0.08310000  0.60220000  0.33070000  1.0
  O  O242  1  0.85370000  0.44580000  0.40770000  1.0
  O  O243  1  0.91690000  0.39780000  0.33070000  1.0
  O  O244  1  0.44580000  0.85370000  0.09230000  1.0
  O  O245  1  0.39780000  0.91690000  0.16930000  1.0
  O  O246  1  0.55420000  0.14630000  0.09230000  1.0
  O  O247  1  0.60220000  0.08310000  0.16930000  1.0
  O  O248  1  0.85370000  0.55420000  0.59230000  1.0
  O  O249  1  0.91690000  0.60220000  0.66930000  1.0
  O  O250  1  0.14630000  0.44580000  0.59230000  1.0
  O  O251  1  0.08310000  0.39780000  0.66930000  1.0
  O  O252  1  0.42860000  0.04980000  0.00000000  1.0
  O  O253  1  0.57140000  0.95020000  0.00000000  1.0
  O  O254  1  0.95020000  0.42860000  0.50000000  1.0
  O  O255  1  0.04980000  0.57140000  0.50000000  1.0
  O  O256  1  0.57140000  0.04980000  0.00000000  1.0
  O  O257  1  0.42860000  0.95020000  0.00000000  1.0
  O  O258  1  0.04980000  0.42860000  0.50000000  1.0
  O  O259  1  0.95020000  0.57140000  0.50000000  1.0
  O  O260  1  0.50000000  0.04790000  0.11960000  1.0
  O  O261  1  0.50000000  0.95210000  0.11960000  1.0
  O  O262  1  0.95210000  0.50000000  0.61960000  1.0
  O  O263  1  0.04790000  0.50000000  0.61960000  1.0
  O  O264  1  0.50000000  0.04790000  0.88040000  1.0
  O  O265  1  0.50000000  0.95210000  0.88040000  1.0
  O  O266  1  0.04790000  0.50000000  0.38040000  1.0
  O  O267  1  0.95210000  0.50000000  0.38040000  1.0
  F  F268  1  0.29130000  0.33870000  0.07150000  1.0
  F  F269  1  0.34940000  0.36690000  0.18440000  1.0
  F  F270  1  0.38200000  0.32720000  0.05290000  1.0
  F  F271  1  0.19850000  0.17600000  0.32400000  1.0
  F  F272  1  0.25300000  0.21690000  0.43100000  1.0
  F  F273  1  0.26900000  0.12850000  0.39100000  1.0
  F  F274  1  0.70870000  0.66130000  0.07150000  1.0
  F  F275  1  0.65060000  0.63310000  0.18440000  1.0
  F  F276  1  0.61800000  0.67280000  0.05290000  1.0
  F  F277  1  0.80150000  0.82400000  0.32400000  1.0
  F  F278  1  0.74700000  0.78310000  0.43100000  1.0
  F  F279  1  0.73100000  0.87150000  0.39100000  1.0
  F  F280  1  0.66130000  0.29130000  0.57150000  1.0
  F  F281  1  0.63310000  0.34940000  0.68440000  1.0
  F  F282  1  0.67280000  0.38200000  0.55290000  1.0
  F  F283  1  0.82400000  0.19850000  0.82400000  1.0
  F  F284  1  0.78310000  0.25300000  0.93100000  1.0
  F  F285  1  0.87150000  0.26900000  0.89100000  1.0
  F  F286  1  0.33870000  0.70870000  0.57150000  1.0
  F  F287  1  0.36690000  0.65060000  0.68440000  1.0
  F  F288  1  0.32720000  0.61800000  0.55290000  1.0
  F  F289  1  0.17600000  0.80150000  0.82400000  1.0
  F  F290  1  0.21690000  0.74700000  0.93100000  1.0
  F  F291  1  0.12850000  0.73100000  0.89100000  1.0
  F  F292  1  0.70870000  0.33870000  0.92850000  1.0
  F  F293  1  0.65060000  0.36690000  0.81560000  1.0
  F  F294  1  0.61800000  0.32720000  0.94710000  1.0
  F  F295  1  0.80150000  0.17600000  0.67600000  1.0
  F  F296  1  0.74700000  0.21690000  0.56900000  1.0
  F  F297  1  0.73100000  0.12850000  0.60900000  1.0
  F  F298  1  0.29130000  0.66130000  0.92850000  1.0
  F  F299  1  0.34940000  0.63310000  0.81560000  1.0
  F  F300  1  0.38200000  0.67280000  0.94710000  1.0
  F  F301  1  0.19850000  0.82400000  0.67600000  1.0
  F  F302  1  0.25300000  0.78310000  0.56900000  1.0
  F  F303  1  0.26900000  0.87150000  0.60900000  1.0
  F  F304  1  0.33870000  0.29130000  0.42850000  1.0
  F  F305  1  0.36690000  0.34940000  0.31560000  1.0
  F  F306  1  0.32720000  0.38200000  0.44710000  1.0
  F  F307  1  0.17600000  0.19850000  0.17600000  1.0
  F  F308  1  0.21690000  0.25300000  0.06900000  1.0
  F  F309  1  0.12850000  0.26900000  0.10900000  1.0
  F  F310  1  0.66130000  0.70870000  0.42850000  1.0
  F  F311  1  0.63310000  0.65060000  0.31560000  1.0
  F  F312  1  0.67280000  0.61800000  0.44710000  1.0
  F  F313  1  0.82400000  0.80150000  0.17600000  1.0
  F  F314  1  0.78310000  0.74700000  0.06900000  1.0
  F  F315  1  0.87150000  0.73100000  0.10900000  1.0
  F  F316  1  0.70870000  0.66130000  0.92850000  1.0
  F  F317  1  0.65060000  0.63310000  0.81560000  1.0
  F  F318  1  0.61800000  0.67280000  0.94710000  1.0
  F  F319  1  0.80150000  0.82400000  0.67600000  1.0
  F  F320  1  0.74700000  0.78310000  0.56900000  1.0
  F  F321  1  0.73100000  0.87150000  0.60900000  1.0
  F  F322  1  0.29130000  0.33870000  0.92850000  1.0
  F  F323  1  0.34940000  0.36690000  0.81560000  1.0
  F  F324  1  0.38200000  0.32720000  0.94710000  1.0
  F  F325  1  0.19850000  0.17600000  0.67600000  1.0
  F  F326  1  0.25300000  0.21690000  0.56900000  1.0
  F  F327  1  0.26900000  0.12850000  0.60900000  1.0
  F  F328  1  0.33870000  0.70870000  0.42850000  1.0
  F  F329  1  0.36690000  0.65060000  0.31560000  1.0
  F  F330  1  0.32720000  0.61800000  0.44710000  1.0
  F  F331  1  0.17600000  0.80150000  0.17600000  1.0
  F  F332  1  0.21690000  0.74700000  0.06900000  1.0
  F  F333  1  0.12850000  0.73100000  0.10900000  1.0
  F  F334  1  0.66130000  0.29130000  0.42850000  1.0
  F  F335  1  0.63310000  0.34940000  0.31560000  1.0
  F  F336  1  0.67280000  0.38200000  0.44710000  1.0
  F  F337  1  0.82400000  0.19850000  0.17600000  1.0
  F  F338  1  0.78310000  0.25300000  0.06900000  1.0
  F  F339  1  0.87150000  0.26900000  0.10900000  1.0
  F  F340  1  0.29130000  0.66130000  0.07150000  1.0
  F  F341  1  0.34940000  0.63310000  0.18440000  1.0
  F  F342  1  0.38200000  0.67280000  0.05290000  1.0
  F  F343  1  0.19850000  0.82400000  0.32400000  1.0
  F  F344  1  0.25300000  0.78310000  0.43100000  1.0
  F  F345  1  0.26900000  0.87150000  0.39100000  1.0
  F  F346  1  0.70870000  0.33870000  0.07150000  1.0
  F  F347  1  0.65060000  0.36690000  0.18440000  1.0
  F  F348  1  0.61800000  0.32720000  0.05290000  1.0
  F  F349  1  0.80150000  0.17600000  0.32400000  1.0
  F  F350  1  0.74700000  0.21690000  0.43100000  1.0
  F  F351  1  0.73100000  0.12850000  0.39100000  1.0
  F  F352  1  0.66130000  0.70870000  0.57150000  1.0
  F  F353  1  0.63310000  0.65060000  0.68440000  1.0
  F  F354  1  0.67280000  0.61800000  0.55290000  1.0
  F  F355  1  0.82400000  0.80150000  0.82400000  1.0
  F  F356  1  0.78310000  0.74700000  0.93100000  1.0
  F  F357  1  0.87150000  0.73100000  0.89100000  1.0
  F  F358  1  0.33870000  0.29130000  0.57150000  1.0
  F  F359  1  0.36690000  0.34940000  0.68440000  1.0
  F  F360  1  0.32720000  0.38200000  0.55290000  1.0
  F  F361  1  0.17600000  0.19850000  0.82400000  1.0
  F  F362  1  0.21690000  0.25300000  0.93100000  1.0
  F  F363  1  0.12850000  0.26900000  0.89100000  1.0
