# generated using pymatgen
data_Co2GeH20W12C24(N4O17)2
_symmetry_space_group_name_H-M   'P 1'
_cell_length_a   26.86350000
_cell_length_b   20.06270000
_cell_length_c   13.11070000
_cell_angle_alpha   90.00000000
_cell_angle_beta   90.00000000
_cell_angle_gamma   90.00000000
_symmetry_Int_Tables_number   1
_chemical_formula_structural   Co2GeH20W12C24(N4O17)2
_chemical_formula_sum   'Co8 Ge4 H80 W48 C96 N32 O136'
_cell_volume   7066.06868445
_cell_formula_units_Z   4
loop_
 _symmetry_equiv_pos_site_id
 _symmetry_equiv_pos_as_xyz
  1  'x, y, z'
loop_
 _atom_site_type_symbol
 _atom_site_label
 _atom_site_symmetry_multiplicity
 _atom_site_fract_x
 _atom_site_fract_y
 _atom_site_fract_z
 _atom_site_occupancy
  Co  Co0  1  0.25868000  0.10972000  0.61350000  1.0
  Co  Co1  1  0.24132000  0.89028000  0.11350000  1.0
  Co  Co2  1  0.74132000  0.60972000  0.38650000  1.0
  Co  Co3  1  0.75868000  0.39028000  0.88650000  1.0
  Co  Co4  1  0.74132000  0.89028000  0.38650000  1.0
  Co  Co5  1  0.75868000  0.10972000  0.88650000  1.0
  Co  Co6  1  0.25868000  0.39028000  0.61350000  1.0
  Co  Co7  1  0.24132000  0.60972000  0.11350000  1.0
  Ge  Ge8  1  0.26413000  0.25000000  0.11195000  1.0
  Ge  Ge9  1  0.23587000  0.75000000  0.61195000  1.0
  Ge  Ge10  1  0.73587000  0.75000000  0.88805000  1.0
  Ge  Ge11  1  0.76413000  0.25000000  0.38805000  1.0
  H  H12  1  0.36800000  0.12560000  0.73110000  1.0
  H  H13  1  0.44670000  0.16960000  0.75070000  1.0
  H  H14  1  0.43120000  0.00620000  0.52800000  1.0
  H  H15  1  0.34300000  0.01170000  0.49380000  1.0
  H  H16  1  0.49700000  0.99640000  0.66010000  1.0
  H  H17  1  0.65260000  0.07750000  0.75810000  1.0
  H  H18  1  0.66750000  0.17510000  0.02020000  1.0
  H  H19  1  0.57420000  0.01970000  0.73050000  1.0
  H  H20  1  0.52030000  0.18810000  0.83640000  1.0
  H  H21  1  0.57930000  0.17470000  0.97830000  1.0
  H  H22  1  0.13200000  0.87440000  0.23110000  1.0
  H  H23  1  0.05330000  0.83040000  0.25070000  1.0
  H  H24  1  0.06880000  0.99380000  0.02800000  1.0
  H  H25  1  0.15700000  0.98830000  0.99380000  1.0
  H  H26  1  0.00300000  0.00360000  0.16010000  1.0
  H  H27  1  0.84740000  0.92250000  0.25810000  1.0
  H  H28  1  0.83250000  0.82490000  0.52020000  1.0
  H  H29  1  0.92580000  0.98030000  0.23050000  1.0
  H  H30  1  0.97970000  0.81190000  0.33640000  1.0
  H  H31  1  0.92070000  0.82530000  0.47830000  1.0
  H  H32  1  0.63200000  0.62560000  0.26890000  1.0
  H  H33  1  0.55330000  0.66960000  0.24930000  1.0
  H  H34  1  0.56880000  0.50620000  0.47200000  1.0
  H  H35  1  0.65700000  0.51170000  0.50620000  1.0
  H  H36  1  0.50300000  0.49640000  0.33990000  1.0
  H  H37  1  0.34740000  0.57750000  0.24190000  1.0
  H  H38  1  0.33250000  0.67510000  0.97980000  1.0
  H  H39  1  0.42580000  0.51970000  0.26950000  1.0
  H  H40  1  0.47970000  0.68810000  0.16360000  1.0
  H  H41  1  0.42070000  0.67470000  0.02170000  1.0
  H  H42  1  0.86800000  0.37440000  0.76890000  1.0
  H  H43  1  0.94670000  0.33040000  0.74930000  1.0
  H  H44  1  0.93120000  0.49380000  0.97200000  1.0
  H  H45  1  0.84300000  0.48830000  0.00620000  1.0
  H  H46  1  0.99700000  0.50360000  0.83990000  1.0
  H  H47  1  0.15260000  0.42250000  0.74190000  1.0
  H  H48  1  0.16750000  0.32490000  0.47980000  1.0
  H  H49  1  0.07420000  0.48030000  0.76950000  1.0
  H  H50  1  0.02030000  0.31190000  0.66360000  1.0
  H  H51  1  0.07930000  0.32530000  0.52170000  1.0
  H  H52  1  0.63200000  0.87440000  0.26890000  1.0
  H  H53  1  0.55330000  0.83040000  0.24930000  1.0
  H  H54  1  0.56880000  0.99380000  0.47200000  1.0
  H  H55  1  0.65700000  0.98830000  0.50620000  1.0
  H  H56  1  0.50300000  0.00360000  0.33990000  1.0
  H  H57  1  0.34740000  0.92250000  0.24190000  1.0
  H  H58  1  0.33250000  0.82490000  0.97980000  1.0
  H  H59  1  0.42580000  0.98030000  0.26950000  1.0
  H  H60  1  0.47970000  0.81190000  0.16360000  1.0
  H  H61  1  0.42070000  0.82530000  0.02170000  1.0
  H  H62  1  0.86800000  0.12560000  0.76890000  1.0
  H  H63  1  0.94670000  0.16960000  0.74930000  1.0
  H  H64  1  0.93120000  0.00620000  0.97200000  1.0
  H  H65  1  0.84300000  0.01170000  0.00620000  1.0
  H  H66  1  0.99700000  0.99640000  0.83990000  1.0
  H  H67  1  0.15260000  0.07750000  0.74190000  1.0
  H  H68  1  0.16750000  0.17510000  0.47980000  1.0
  H  H69  1  0.07420000  0.01970000  0.76950000  1.0
  H  H70  1  0.02030000  0.18810000  0.66360000  1.0
  H  H71  1  0.07930000  0.17470000  0.52170000  1.0
  H  H72  1  0.36800000  0.37440000  0.73110000  1.0
  H  H73  1  0.44670000  0.33040000  0.75070000  1.0
  H  H74  1  0.43120000  0.49380000  0.52800000  1.0
  H  H75  1  0.34300000  0.48830000  0.49380000  1.0
  H  H76  1  0.49700000  0.50360000  0.66010000  1.0
  H  H77  1  0.65260000  0.42250000  0.75810000  1.0
  H  H78  1  0.66750000  0.32490000  0.02020000  1.0
  H  H79  1  0.57420000  0.48030000  0.73050000  1.0
  H  H80  1  0.52030000  0.31190000  0.83640000  1.0
  H  H81  1  0.57930000  0.32530000  0.97830000  1.0
  H  H82  1  0.13200000  0.62560000  0.23110000  1.0
  H  H83  1  0.05330000  0.66960000  0.25070000  1.0
  H  H84  1  0.06880000  0.50620000  0.02800000  1.0
  H  H85  1  0.15700000  0.51170000  0.99380000  1.0
  H  H86  1  0.00300000  0.49640000  0.16010000  1.0
  H  H87  1  0.84740000  0.57750000  0.25810000  1.0
  H  H88  1  0.83250000  0.67510000  0.52020000  1.0
  H  H89  1  0.92580000  0.51970000  0.23050000  1.0
  H  H90  1  0.97970000  0.68810000  0.33640000  1.0
  H  H91  1  0.92070000  0.67470000  0.47830000  1.0
  W  W92  1  0.26675000  0.16699000  0.87631000  1.0
  W  W93  1  0.26703000  0.07466000  0.12006000  1.0
  W  W94  1  0.26819000  0.15799000  0.33997000  1.0
  W  W95  1  0.36929000  0.15759000  0.19155000  1.0
  W  W96  1  0.15442000  0.16649000  0.03839000  1.0
  W  W97  1  0.23325000  0.83301000  0.37631000  1.0
  W  W98  1  0.23297000  0.92534000  0.62006000  1.0
  W  W99  1  0.23181000  0.84201000  0.83997000  1.0
  W  W100  1  0.13071000  0.84241000  0.69155000  1.0
  W  W101  1  0.34558000  0.83351000  0.53839000  1.0
  W  W102  1  0.73325000  0.66699000  0.12369000  1.0
  W  W103  1  0.73297000  0.57466000  0.87994000  1.0
  W  W104  1  0.73181000  0.65799000  0.66003000  1.0
  W  W105  1  0.63071000  0.65759000  0.80845000  1.0
  W  W106  1  0.84558000  0.66649000  0.96161000  1.0
  W  W107  1  0.76675000  0.33301000  0.62369000  1.0
  W  W108  1  0.76703000  0.42534000  0.37994000  1.0
  W  W109  1  0.76819000  0.34201000  0.16003000  1.0
  W  W110  1  0.86929000  0.34241000  0.30845000  1.0
  W  W111  1  0.65442000  0.33351000  0.46161000  1.0
  W  W112  1  0.73325000  0.83301000  0.12369000  1.0
  W  W113  1  0.73297000  0.92534000  0.87994000  1.0
  W  W114  1  0.73181000  0.84201000  0.66003000  1.0
  W  W115  1  0.63071000  0.84241000  0.80845000  1.0
  W  W116  1  0.84558000  0.83351000  0.96161000  1.0
  W  W117  1  0.76675000  0.16699000  0.62369000  1.0
  W  W118  1  0.76703000  0.07466000  0.37994000  1.0
  W  W119  1  0.76819000  0.15799000  0.16003000  1.0
  W  W120  1  0.86929000  0.15759000  0.30845000  1.0
  W  W121  1  0.65442000  0.16649000  0.46161000  1.0
  W  W122  1  0.26675000  0.33301000  0.87631000  1.0
  W  W123  1  0.26703000  0.42534000  0.12006000  1.0
  W  W124  1  0.26819000  0.34201000  0.33997000  1.0
  W  W125  1  0.36929000  0.34241000  0.19155000  1.0
  W  W126  1  0.15442000  0.33351000  0.03839000  1.0
  W  W127  1  0.23325000  0.66699000  0.37631000  1.0
  W  W128  1  0.23297000  0.57466000  0.62006000  1.0
  W  W129  1  0.23181000  0.65799000  0.83997000  1.0
  W  W130  1  0.13071000  0.65759000  0.69155000  1.0
  W  W131  1  0.34558000  0.66649000  0.53839000  1.0
  W  W132  1  0.15514000  0.25000000  0.25969000  1.0
  W  W133  1  0.36851000  0.25000000  0.94782000  1.0
  W  W134  1  0.34486000  0.75000000  0.75969000  1.0
  W  W135  1  0.13149000  0.75000000  0.44782000  1.0
  W  W136  1  0.84486000  0.75000000  0.74031000  1.0
  W  W137  1  0.63149000  0.75000000  0.05218000  1.0
  W  W138  1  0.65514000  0.25000000  0.24031000  1.0
  W  W139  1  0.86851000  0.25000000  0.55218000  1.0
  C  C140  1  0.37270000  0.09840000  0.67400000  1.0
  C  C141  1  0.46570000  0.08250000  0.70000000  1.0
  C  C142  1  0.47190000  0.13780000  0.74900000  1.0
  C  C143  1  0.40810000  0.03130000  0.56400000  1.0
  C  C144  1  0.35940000  0.03570000  0.54400000  1.0
  C  C145  1  0.50240000  0.03650000  0.69400000  1.0
  C  C146  1  0.64530000  0.10160000  0.81700000  1.0
  C  C147  1  0.65350000  0.15620000  0.96200000  1.0
  C  C148  1  0.54790000  0.04930000  0.73900000  1.0
  C  C149  1  0.55400000  0.10540000  0.79500000  1.0
  C  C150  1  0.51630000  0.14920000  0.79900000  1.0
  C  C151  1  0.60470000  0.15550000  0.94030000  1.0
  C  C152  1  0.12730000  0.90160000  0.17400000  1.0
  C  C153  1  0.03430000  0.91750000  0.20000000  1.0
  C  C154  1  0.02810000  0.86220000  0.24900000  1.0
  C  C155  1  0.09190000  0.96870000  0.06400000  1.0
  C  C156  1  0.14060000  0.96430000  0.04400000  1.0
  C  C157  1  0.99760000  0.96350000  0.19400000  1.0
  C  C158  1  0.85470000  0.89840000  0.31700000  1.0
  C  C159  1  0.84650000  0.84380000  0.46200000  1.0
  C  C160  1  0.95210000  0.95070000  0.23900000  1.0
  C  C161  1  0.94600000  0.89460000  0.29500000  1.0
  C  C162  1  0.98370000  0.85080000  0.29900000  1.0
  C  C163  1  0.89530000  0.84450000  0.44030000  1.0
  C  C164  1  0.62730000  0.59840000  0.32600000  1.0
  C  C165  1  0.53430000  0.58250000  0.30000000  1.0
  C  C166  1  0.52810000  0.63780000  0.25100000  1.0
  C  C167  1  0.59190000  0.53130000  0.43600000  1.0
  C  C168  1  0.64060000  0.53570000  0.45600000  1.0
  C  C169  1  0.49760000  0.53650000  0.30600000  1.0
  C  C170  1  0.35470000  0.60160000  0.18300000  1.0
  C  C171  1  0.34650000  0.65620000  0.03800000  1.0
  C  C172  1  0.45210000  0.54930000  0.26100000  1.0
  C  C173  1  0.44600000  0.60540000  0.20500000  1.0
  C  C174  1  0.48370000  0.64920000  0.20100000  1.0
  C  C175  1  0.39530000  0.65550000  0.05970000  1.0
  C  C176  1  0.87270000  0.40160000  0.82600000  1.0
  C  C177  1  0.96570000  0.41750000  0.80000000  1.0
  C  C178  1  0.97190000  0.36220000  0.75100000  1.0
  C  C179  1  0.90810000  0.46870000  0.93600000  1.0
  C  C180  1  0.85940000  0.46430000  0.95600000  1.0
  C  C181  1  0.00240000  0.46350000  0.80600000  1.0
  C  C182  1  0.14530000  0.39840000  0.68300000  1.0
  C  C183  1  0.15350000  0.34380000  0.53800000  1.0
  C  C184  1  0.04790000  0.45070000  0.76100000  1.0
  C  C185  1  0.05400000  0.39460000  0.70500000  1.0
  C  C186  1  0.01630000  0.35080000  0.70100000  1.0
  C  C187  1  0.10470000  0.34450000  0.55970000  1.0
  C  C188  1  0.62730000  0.90160000  0.32600000  1.0
  C  C189  1  0.53430000  0.91750000  0.30000000  1.0
  C  C190  1  0.52810000  0.86220000  0.25100000  1.0
  C  C191  1  0.59190000  0.96870000  0.43600000  1.0
  C  C192  1  0.64060000  0.96430000  0.45600000  1.0
  C  C193  1  0.49760000  0.96350000  0.30600000  1.0
  C  C194  1  0.35470000  0.89840000  0.18300000  1.0
  C  C195  1  0.34650000  0.84380000  0.03800000  1.0
  C  C196  1  0.45210000  0.95070000  0.26100000  1.0
  C  C197  1  0.44600000  0.89460000  0.20500000  1.0
  C  C198  1  0.48370000  0.85080000  0.20100000  1.0
  C  C199  1  0.39530000  0.84450000  0.05970000  1.0
  C  C200  1  0.87270000  0.09840000  0.82600000  1.0
  C  C201  1  0.96570000  0.08250000  0.80000000  1.0
  C  C202  1  0.97190000  0.13780000  0.75100000  1.0
  C  C203  1  0.90810000  0.03130000  0.93600000  1.0
  C  C204  1  0.85940000  0.03570000  0.95600000  1.0
  C  C205  1  0.00240000  0.03650000  0.80600000  1.0
  C  C206  1  0.14530000  0.10160000  0.68300000  1.0
  C  C207  1  0.15350000  0.15620000  0.53800000  1.0
  C  C208  1  0.04790000  0.04930000  0.76100000  1.0
  C  C209  1  0.05400000  0.10540000  0.70500000  1.0
  C  C210  1  0.01630000  0.14920000  0.70100000  1.0
  C  C211  1  0.10470000  0.15550000  0.55970000  1.0
  C  C212  1  0.37270000  0.40160000  0.67400000  1.0
  C  C213  1  0.46570000  0.41750000  0.70000000  1.0
  C  C214  1  0.47190000  0.36220000  0.74900000  1.0
  C  C215  1  0.40810000  0.46870000  0.56400000  1.0
  C  C216  1  0.35940000  0.46430000  0.54400000  1.0
  C  C217  1  0.50240000  0.46350000  0.69400000  1.0
  C  C218  1  0.64530000  0.39840000  0.81700000  1.0
  C  C219  1  0.65350000  0.34380000  0.96200000  1.0
  C  C220  1  0.54790000  0.45070000  0.73900000  1.0
  C  C221  1  0.55400000  0.39460000  0.79500000  1.0
  C  C222  1  0.51630000  0.35080000  0.79900000  1.0
  C  C223  1  0.60470000  0.34450000  0.94030000  1.0
  C  C224  1  0.12730000  0.59840000  0.17400000  1.0
  C  C225  1  0.03430000  0.58250000  0.20000000  1.0
  C  C226  1  0.02810000  0.63780000  0.24900000  1.0
  C  C227  1  0.09190000  0.53130000  0.06400000  1.0
  C  C228  1  0.14060000  0.53570000  0.04400000  1.0
  C  C229  1  0.99760000  0.53650000  0.19400000  1.0
  C  C230  1  0.85470000  0.60160000  0.31700000  1.0
  C  C231  1  0.84650000  0.65620000  0.46200000  1.0
  C  C232  1  0.95210000  0.54930000  0.23900000  1.0
  C  C233  1  0.94600000  0.60540000  0.29500000  1.0
  C  C234  1  0.98370000  0.64920000  0.29900000  1.0
  C  C235  1  0.89530000  0.65550000  0.44030000  1.0
  N  N236  1  0.33630000  0.08200000  0.61060000  1.0
  N  N237  1  0.68040000  0.12400000  0.88450000  1.0
  N  N238  1  0.41820000  0.07090000  0.64840000  1.0
  N  N239  1  0.59960000  0.11880000  0.84530000  1.0
  N  N240  1  0.16370000  0.91800000  0.11060000  1.0
  N  N241  1  0.81960000  0.87600000  0.38450000  1.0
  N  N242  1  0.08180000  0.92910000  0.14840000  1.0
  N  N243  1  0.90040000  0.88120000  0.34530000  1.0
  N  N244  1  0.66370000  0.58200000  0.38940000  1.0
  N  N245  1  0.31960000  0.62400000  0.11550000  1.0
  N  N246  1  0.58180000  0.57090000  0.35160000  1.0
  N  N247  1  0.40040000  0.61880000  0.15470000  1.0
  N  N248  1  0.83630000  0.41800000  0.88940000  1.0
  N  N249  1  0.18040000  0.37600000  0.61550000  1.0
  N  N250  1  0.91820000  0.42910000  0.85160000  1.0
  N  N251  1  0.09960000  0.38120000  0.65470000  1.0
  N  N252  1  0.66370000  0.91800000  0.38940000  1.0
  N  N253  1  0.31960000  0.87600000  0.11550000  1.0
  N  N254  1  0.58180000  0.92910000  0.35160000  1.0
  N  N255  1  0.40040000  0.88120000  0.15470000  1.0
  N  N256  1  0.83630000  0.08200000  0.88940000  1.0
  N  N257  1  0.18040000  0.12400000  0.61550000  1.0
  N  N258  1  0.91820000  0.07090000  0.85160000  1.0
  N  N259  1  0.09960000  0.11880000  0.65470000  1.0
  N  N260  1  0.33630000  0.41800000  0.61060000  1.0
  N  N261  1  0.68040000  0.37600000  0.88450000  1.0
  N  N262  1  0.41820000  0.42910000  0.64840000  1.0
  N  N263  1  0.59960000  0.38120000  0.84530000  1.0
  N  N264  1  0.16370000  0.58200000  0.11060000  1.0
  N  N265  1  0.81960000  0.62400000  0.38450000  1.0
  N  N266  1  0.08180000  0.57090000  0.14840000  1.0
  N  N267  1  0.90040000  0.61880000  0.34530000  1.0
  O  O268  1  0.37530000  0.18450000  0.05360000  1.0
  O  O269  1  0.20120000  0.10740000  0.10310000  1.0
  O  O270  1  0.27910000  0.10830000  0.98630000  1.0
  O  O271  1  0.33690000  0.07590000  0.14570000  1.0
  O  O272  1  0.25920000  0.99190000  0.10250000  1.0
  O  O273  1  0.26010000  0.12720000  0.46010000  1.0
  O  O274  1  0.33860000  0.14420000  0.32430000  1.0
  O  O275  1  0.25970000  0.11390000  0.77430000  1.0
  O  O276  1  0.33760000  0.18290000  0.86450000  1.0
  O  O277  1  0.25750000  0.07620000  0.26420000  1.0
  O  O278  1  0.20310000  0.18570000  0.30660000  1.0
  O  O279  1  0.28600000  0.18010000  0.17410000  1.0
  O  O280  1  0.20130000  0.17160000  0.93170000  1.0
  O  O281  1  0.12710000  0.18200000  0.17310000  1.0
  O  O282  1  0.12470000  0.81550000  0.55360000  1.0
  O  O283  1  0.29880000  0.89260000  0.60310000  1.0
  O  O284  1  0.22090000  0.89170000  0.48630000  1.0
  O  O285  1  0.16310000  0.92410000  0.64570000  1.0
  O  O286  1  0.24080000  0.00810000  0.60250000  1.0
  O  O287  1  0.23990000  0.87280000  0.96010000  1.0
  O  O288  1  0.16140000  0.85580000  0.82430000  1.0
  O  O289  1  0.24030000  0.88610000  0.27430000  1.0
  O  O290  1  0.16240000  0.81710000  0.36450000  1.0
  O  O291  1  0.24250000  0.92380000  0.76420000  1.0
  O  O292  1  0.29690000  0.81430000  0.80660000  1.0
  O  O293  1  0.21400000  0.81990000  0.67410000  1.0
  O  O294  1  0.29870000  0.82840000  0.43170000  1.0
  O  O295  1  0.37290000  0.81800000  0.67310000  1.0
  O  O296  1  0.62470000  0.68450000  0.94640000  1.0
  O  O297  1  0.79880000  0.60740000  0.89690000  1.0
  O  O298  1  0.72090000  0.60830000  0.01370000  1.0
  O  O299  1  0.66310000  0.57590000  0.85430000  1.0
  O  O300  1  0.74080000  0.49190000  0.89750000  1.0
  O  O301  1  0.73990000  0.62720000  0.53990000  1.0
  O  O302  1  0.66140000  0.64420000  0.67570000  1.0
  O  O303  1  0.74030000  0.61390000  0.22570000  1.0
  O  O304  1  0.66240000  0.68290000  0.13550000  1.0
  O  O305  1  0.74250000  0.57620000  0.73580000  1.0
  O  O306  1  0.79690000  0.68570000  0.69340000  1.0
  O  O307  1  0.71400000  0.68010000  0.82590000  1.0
  O  O308  1  0.79870000  0.67160000  0.06830000  1.0
  O  O309  1  0.87290000  0.68200000  0.82690000  1.0
  O  O310  1  0.87530000  0.31550000  0.44640000  1.0
  O  O311  1  0.70120000  0.39260000  0.39690000  1.0
  O  O312  1  0.77910000  0.39170000  0.51370000  1.0
  O  O313  1  0.83690000  0.42410000  0.35430000  1.0
  O  O314  1  0.75920000  0.50810000  0.39750000  1.0
  O  O315  1  0.76010000  0.37280000  0.03990000  1.0
  O  O316  1  0.83860000  0.35580000  0.17570000  1.0
  O  O317  1  0.75970000  0.38610000  0.72570000  1.0
  O  O318  1  0.83760000  0.31710000  0.63550000  1.0
  O  O319  1  0.75750000  0.42380000  0.23580000  1.0
  O  O320  1  0.70310000  0.31430000  0.19340000  1.0
  O  O321  1  0.78600000  0.31990000  0.32590000  1.0
  O  O322  1  0.70130000  0.32840000  0.56830000  1.0
  O  O323  1  0.62710000  0.31800000  0.32690000  1.0
  O  O324  1  0.62470000  0.81550000  0.94640000  1.0
  O  O325  1  0.79880000  0.89260000  0.89690000  1.0
  O  O326  1  0.72090000  0.89170000  0.01370000  1.0
  O  O327  1  0.66310000  0.92410000  0.85430000  1.0
  O  O328  1  0.74080000  0.00810000  0.89750000  1.0
  O  O329  1  0.73990000  0.87280000  0.53990000  1.0
  O  O330  1  0.66140000  0.85580000  0.67570000  1.0
  O  O331  1  0.74030000  0.88610000  0.22570000  1.0
  O  O332  1  0.66240000  0.81710000  0.13550000  1.0
  O  O333  1  0.74250000  0.92380000  0.73580000  1.0
  O  O334  1  0.79690000  0.81430000  0.69340000  1.0
  O  O335  1  0.71400000  0.81990000  0.82590000  1.0
  O  O336  1  0.79870000  0.82840000  0.06830000  1.0
  O  O337  1  0.87290000  0.81800000  0.82690000  1.0
  O  O338  1  0.87530000  0.18450000  0.44640000  1.0
  O  O339  1  0.70120000  0.10740000  0.39690000  1.0
  O  O340  1  0.77910000  0.10830000  0.51370000  1.0
  O  O341  1  0.83690000  0.07590000  0.35430000  1.0
  O  O342  1  0.75920000  0.99190000  0.39750000  1.0
  O  O343  1  0.76010000  0.12720000  0.03990000  1.0
  O  O344  1  0.83860000  0.14420000  0.17570000  1.0
  O  O345  1  0.75970000  0.11390000  0.72570000  1.0
  O  O346  1  0.83760000  0.18290000  0.63550000  1.0
  O  O347  1  0.75750000  0.07620000  0.23580000  1.0
  O  O348  1  0.70310000  0.18570000  0.19340000  1.0
  O  O349  1  0.78600000  0.18010000  0.32590000  1.0
  O  O350  1  0.70130000  0.17160000  0.56830000  1.0
  O  O351  1  0.62710000  0.18200000  0.32690000  1.0
  O  O352  1  0.37530000  0.31550000  0.05360000  1.0
  O  O353  1  0.20120000  0.39260000  0.10310000  1.0
  O  O354  1  0.27910000  0.39170000  0.98630000  1.0
  O  O355  1  0.33690000  0.42410000  0.14570000  1.0
  O  O356  1  0.25920000  0.50810000  0.10250000  1.0
  O  O357  1  0.26010000  0.37280000  0.46010000  1.0
  O  O358  1  0.33860000  0.35580000  0.32430000  1.0
  O  O359  1  0.25970000  0.38610000  0.77430000  1.0
  O  O360  1  0.33760000  0.31710000  0.86450000  1.0
  O  O361  1  0.25750000  0.42380000  0.26420000  1.0
  O  O362  1  0.20310000  0.31430000  0.30660000  1.0
  O  O363  1  0.28600000  0.31990000  0.17410000  1.0
  O  O364  1  0.20130000  0.32840000  0.93170000  1.0
  O  O365  1  0.12710000  0.31800000  0.17310000  1.0
  O  O366  1  0.12470000  0.68450000  0.55360000  1.0
  O  O367  1  0.29880000  0.60740000  0.60310000  1.0
  O  O368  1  0.22090000  0.60830000  0.48630000  1.0
  O  O369  1  0.16310000  0.57590000  0.64570000  1.0
  O  O370  1  0.24080000  0.49190000  0.60250000  1.0
  O  O371  1  0.23990000  0.62720000  0.96010000  1.0
  O  O372  1  0.16140000  0.64420000  0.82430000  1.0
  O  O373  1  0.24030000  0.61390000  0.27430000  1.0
  O  O374  1  0.16240000  0.68290000  0.36450000  1.0
  O  O375  1  0.24250000  0.57620000  0.76420000  1.0
  O  O376  1  0.29690000  0.68570000  0.80660000  1.0
  O  O377  1  0.21400000  0.68010000  0.67410000  1.0
  O  O378  1  0.29870000  0.67160000  0.43170000  1.0
  O  O379  1  0.37290000  0.68200000  0.67310000  1.0
  O  O380  1  0.12490000  0.25000000  0.99650000  1.0
  O  O381  1  0.25510000  0.25000000  0.80320000  1.0
  O  O382  1  0.28220000  0.25000000  0.36210000  1.0
  O  O383  1  0.37550000  0.25000000  0.22410000  1.0
  O  O384  1  0.20030000  0.25000000  0.11160000  1.0
  O  O385  1  0.28510000  0.25000000  0.98830000  1.0
  O  O386  1  0.37510000  0.75000000  0.49650000  1.0
  O  O387  1  0.24490000  0.75000000  0.30320000  1.0
  O  O388  1  0.21780000  0.75000000  0.86210000  1.0
  O  O389  1  0.12450000  0.75000000  0.72410000  1.0
  O  O390  1  0.29970000  0.75000000  0.61160000  1.0
  O  O391  1  0.21490000  0.75000000  0.48830000  1.0
  O  O392  1  0.87510000  0.75000000  0.00350000  1.0
  O  O393  1  0.74490000  0.75000000  0.19680000  1.0
  O  O394  1  0.71780000  0.75000000  0.63790000  1.0
  O  O395  1  0.62450000  0.75000000  0.77590000  1.0
  O  O396  1  0.79970000  0.75000000  0.88840000  1.0
  O  O397  1  0.71490000  0.75000000  0.01170000  1.0
  O  O398  1  0.62490000  0.25000000  0.50350000  1.0
  O  O399  1  0.75510000  0.25000000  0.69680000  1.0
  O  O400  1  0.78220000  0.25000000  0.13790000  1.0
  O  O401  1  0.87550000  0.25000000  0.27590000  1.0
  O  O402  1  0.70030000  0.25000000  0.38840000  1.0
  O  O403  1  0.78510000  0.25000000  0.51170000  1.0
