# generated using pymatgen
data_Zn4B60H57(C9O7)2
_symmetry_space_group_name_H-M   'P 1'
_cell_length_a   17.68250000
_cell_length_b   22.32870000
_cell_length_c   28.92290000
_cell_angle_alpha   90.00000000
_cell_angle_beta   107.42900000
_cell_angle_gamma   90.00000000
_symmetry_Int_Tables_number   1
_chemical_formula_structural   Zn4B60H57(C9O7)2
_chemical_formula_sum   'Zn16 B240 H228 C72 O56'
_cell_volume   10895.26407958
_cell_formula_units_Z   4
loop_
 _symmetry_equiv_pos_site_id
 _symmetry_equiv_pos_as_xyz
  1  'x, y, z'
loop_
 _atom_site_type_symbol
 _atom_site_label
 _atom_site_symmetry_multiplicity
 _atom_site_fract_x
 _atom_site_fract_y
 _atom_site_fract_z
 _atom_site_occupancy
  Zn  Zn0  1  0.94857000  0.60735000  0.15501000  1.0
  Zn  Zn1  1  0.84824000  0.39724000  0.24699000  1.0
  Zn  Zn2  1  0.84924000  0.54366000  0.22122000  1.0
  Zn  Zn3  1  0.94570000  0.45673000  0.17762000  1.0
  Zn  Zn4  1  0.44857000  0.89265000  0.65501000  1.0
  Zn  Zn5  1  0.34824000  0.10276000  0.74699000  1.0
  Zn  Zn6  1  0.34924000  0.95634000  0.72122000  1.0
  Zn  Zn7  1  0.44570000  0.04327000  0.67762000  1.0
  Zn  Zn8  1  0.55143000  0.10735000  0.34499000  1.0
  Zn  Zn9  1  0.65176000  0.89724000  0.25301000  1.0
  Zn  Zn10  1  0.65076000  0.04366000  0.27878000  1.0
  Zn  Zn11  1  0.55430000  0.95673000  0.32238000  1.0
  Zn  Zn12  1  0.05143000  0.39265000  0.84499000  1.0
  Zn  Zn13  1  0.15176000  0.60276000  0.75301000  1.0
  Zn  Zn14  1  0.15076000  0.45634000  0.77878000  1.0
  Zn  Zn15  1  0.05430000  0.54327000  0.82238000  1.0
  B  B16  1  0.82290000  0.75210000  0.02340000  1.0
  B  B17  1  0.87330000  0.72330000  0.98420000  1.0
  B  B18  1  0.83260000  0.65390000  0.96300000  1.0
  B  B19  1  0.75530000  0.63990000  0.98740000  1.0
  B  B20  1  0.74770000  0.69990000  0.02480000  1.0
  B  B21  1  0.68140000  0.69330000  0.96690000  1.0
  B  B22  1  0.73290000  0.66430000  0.92790000  1.0
  B  B23  1  0.80820000  0.71660000  0.92650000  1.0
  B  B24  1  0.80230000  0.77910000  0.96350000  1.0
  B  B25  1  0.72240000  0.76570000  0.98840000  1.0
  B  B26  1  0.69680000  0.81490000  0.84980000  1.0
  B  B27  1  0.65470000  0.74550000  0.82940000  1.0
  B  B28  1  0.57580000  0.73240000  0.85530000  1.0
  B  B29  1  0.56920000  0.79500000  0.89130000  1.0
  B  B30  1  0.64500000  0.84650000  0.88870000  1.0
  B  B31  1  0.62480000  0.86960000  0.82810000  1.0
  B  B32  1  0.54640000  0.85800000  0.85300000  1.0
  B  B33  1  0.50400000  0.78850000  0.83340000  1.0
  B  B34  1  0.55710000  0.75730000  0.79490000  1.0
  B  B35  1  0.63030000  0.80760000  0.79240000  1.0
  B  B36  1  0.75050000  0.35690000  0.04780000  1.0
  B  B37  1  0.79050000  0.28680000  0.07280000  1.0
  B  B38  1  0.73350000  0.25920000  0.10810000  1.0
  B  B39  1  0.65930000  0.31170000  0.10600000  1.0
  B  B40  1  0.66860000  0.37150000  0.06940000  1.0
  B  B41  1  0.59640000  0.31660000  0.04690000  1.0
  B  B42  1  0.63600000  0.24690000  0.07140000  1.0
  B  B43  1  0.71860000  0.23120000  0.05050000  1.0
  B  B44  1  0.72720000  0.29060000  0.01280000  1.0
  B  B45  1  0.65160000  0.34350000  0.01000000  1.0
  B  B46  1  0.58380000  0.25670000  0.91380000  1.0
  B  B47  1  0.62000000  0.18620000  0.93930000  1.0
  B  B48  1  0.56240000  0.16240000  0.97600000  1.0
  B  B49  1  0.48820000  0.21420000  0.97310000  1.0
  B  B50  1  0.50100000  0.27430000  0.93400000  1.0
  B  B51  1  0.42630000  0.21760000  0.91380000  1.0
  B  B52  1  0.46470000  0.15170000  0.93950000  1.0
  B  B53  1  0.54560000  0.13190000  0.91780000  1.0
  B  B54  1  0.55850000  0.18990000  0.87930000  1.0
  B  B55  1  0.48480000  0.24400000  0.87630000  1.0
  B  B56  1  0.24300000  0.52980000  0.24620000  1.0
  B  B57  1  0.22060000  0.46120000  0.21440000  1.0
  B  B58  1  0.20100000  0.47720000  0.15220000  1.0
  B  B59  1  0.21090000  0.55520000  0.14570000  1.0
  B  B60  1  0.23760000  0.58820000  0.20400000  1.0
  B  B61  1  0.29380000  0.44750000  0.18560000  1.0
  B  B62  1  0.32060000  0.48160000  0.24510000  1.0
  B  B63  1  0.32950000  0.55790000  0.23880000  1.0
  B  B64  1  0.30950000  0.57540000  0.17490000  1.0
  B  B65  1  0.28790000  0.50670000  0.14260000  1.0
  B  B66  1  0.48650000  0.43350000  0.22880000  1.0
  B  B67  1  0.51260000  0.50120000  0.26130000  1.0
  B  B68  1  0.50660000  0.55920000  0.21840000  1.0
  B  B69  1  0.47980000  0.52750000  0.15950000  1.0
  B  B70  1  0.46740000  0.44960000  0.16600000  1.0
  B  B71  1  0.58580000  0.45210000  0.25850000  1.0
  B  B72  1  0.55910000  0.42000000  0.20010000  1.0
  B  B73  1  0.55570000  0.47740000  0.15840000  1.0
  B  B74  1  0.57960000  0.54470000  0.18980000  1.0
  B  B75  1  0.59890000  0.52810000  0.25280000  1.0
  B  B76  1  0.32290000  0.74790000  0.52340000  1.0
  B  B77  1  0.37330000  0.77670000  0.48420000  1.0
  B  B78  1  0.33260000  0.84610000  0.46300000  1.0
  B  B79  1  0.25530000  0.86010000  0.48740000  1.0
  B  B80  1  0.24770000  0.80010000  0.52480000  1.0
  B  B81  1  0.18140000  0.80670000  0.46690000  1.0
  B  B82  1  0.23290000  0.83570000  0.42790000  1.0
  B  B83  1  0.30820000  0.78340000  0.42650000  1.0
  B  B84  1  0.30230000  0.72090000  0.46350000  1.0
  B  B85  1  0.22240000  0.73430000  0.48840000  1.0
  B  B86  1  0.19680000  0.68510000  0.34980000  1.0
  B  B87  1  0.15470000  0.75450000  0.32940000  1.0
  B  B88  1  0.07580000  0.76760000  0.35530000  1.0
  B  B89  1  0.06920000  0.70500000  0.39130000  1.0
  B  B90  1  0.14500000  0.65350000  0.38870000  1.0
  B  B91  1  0.12480000  0.63040000  0.32810000  1.0
  B  B92  1  0.04640000  0.64200000  0.35300000  1.0
  B  B93  1  0.00400000  0.71150000  0.33340000  1.0
  B  B94  1  0.05710000  0.74270000  0.29490000  1.0
  B  B95  1  0.13030000  0.69240000  0.29240000  1.0
  B  B96  1  0.25050000  0.14310000  0.54780000  1.0
  B  B97  1  0.29050000  0.21320000  0.57280000  1.0
  B  B98  1  0.23350000  0.24080000  0.60810000  1.0
  B  B99  1  0.15930000  0.18830000  0.60600000  1.0
  B  B100  1  0.16860000  0.12850000  0.56940000  1.0
  B  B101  1  0.09640000  0.18340000  0.54690000  1.0
  B  B102  1  0.13600000  0.25310000  0.57140000  1.0
  B  B103  1  0.21860000  0.26880000  0.55050000  1.0
  B  B104  1  0.22720000  0.20940000  0.51280000  1.0
  B  B105  1  0.15160000  0.15650000  0.51000000  1.0
  B  B106  1  0.08380000  0.24330000  0.41380000  1.0
  B  B107  1  0.12000000  0.31380000  0.43930000  1.0
  B  B108  1  0.06240000  0.33760000  0.47600000  1.0
  B  B109  1  0.98820000  0.28580000  0.47310000  1.0
  B  B110  1  0.00100000  0.22570000  0.43400000  1.0
  B  B111  1  0.92630000  0.28240000  0.41380000  1.0
  B  B112  1  0.96470000  0.34830000  0.43950000  1.0
  B  B113  1  0.04560000  0.36810000  0.41780000  1.0
  B  B114  1  0.05850000  0.31010000  0.37930000  1.0
  B  B115  1  0.98480000  0.25600000  0.37630000  1.0
  B  B116  1  0.74300000  0.97020000  0.74620000  1.0
  B  B117  1  0.72060000  0.03880000  0.71440000  1.0
  B  B118  1  0.70100000  0.02280000  0.65220000  1.0
  B  B119  1  0.71090000  0.94480000  0.64570000  1.0
  B  B120  1  0.73760000  0.91180000  0.70400000  1.0
  B  B121  1  0.79380000  0.05250000  0.68560000  1.0
  B  B122  1  0.82060000  0.01840000  0.74510000  1.0
  B  B123  1  0.82950000  0.94210000  0.73880000  1.0
  B  B124  1  0.80950000  0.92460000  0.67490000  1.0
  B  B125  1  0.78790000  0.99330000  0.64260000  1.0
  B  B126  1  0.98650000  0.06650000  0.72880000  1.0
  B  B127  1  0.01260000  0.99880000  0.76130000  1.0
  B  B128  1  0.00660000  0.94080000  0.71840000  1.0
  B  B129  1  0.97980000  0.97250000  0.65950000  1.0
  B  B130  1  0.96740000  0.05040000  0.66600000  1.0
  B  B131  1  0.08580000  0.04790000  0.75850000  1.0
  B  B132  1  0.05910000  0.08000000  0.70010000  1.0
  B  B133  1  0.05570000  0.02260000  0.65840000  1.0
  B  B134  1  0.07960000  0.95530000  0.68980000  1.0
  B  B135  1  0.09890000  0.97190000  0.75280000  1.0
  B  B136  1  0.67710000  0.25210000  0.47660000  1.0
  B  B137  1  0.62670000  0.22330000  0.51580000  1.0
  B  B138  1  0.66740000  0.15390000  0.53700000  1.0
  B  B139  1  0.74470000  0.13990000  0.51260000  1.0
  B  B140  1  0.75230000  0.19990000  0.47520000  1.0
  B  B141  1  0.81860000  0.19330000  0.53310000  1.0
  B  B142  1  0.76710000  0.16430000  0.57210000  1.0
  B  B143  1  0.69180000  0.21660000  0.57350000  1.0
  B  B144  1  0.69770000  0.27910000  0.53650000  1.0
  B  B145  1  0.77760000  0.26570000  0.51160000  1.0
  B  B146  1  0.80320000  0.31490000  0.65020000  1.0
  B  B147  1  0.84530000  0.24550000  0.67060000  1.0
  B  B148  1  0.92420000  0.23240000  0.64470000  1.0
  B  B149  1  0.93080000  0.29500000  0.60870000  1.0
  B  B150  1  0.85500000  0.34650000  0.61130000  1.0
  B  B151  1  0.87520000  0.36960000  0.67190000  1.0
  B  B152  1  0.95360000  0.35800000  0.64700000  1.0
  B  B153  1  0.99600000  0.28850000  0.66666667  1.0
  B  B154  1  0.94290000  0.25730000  0.70510000  1.0
  B  B155  1  0.86970000  0.30760000  0.70760000  1.0
  B  B156  1  0.74950000  0.85690000  0.45220000  1.0
  B  B157  1  0.70950000  0.78680000  0.42720000  1.0
  B  B158  1  0.76650000  0.75920000  0.39190000  1.0
  B  B159  1  0.84070000  0.81170000  0.39400000  1.0
  B  B160  1  0.83140000  0.87150000  0.43060000  1.0
  B  B161  1  0.90360000  0.81660000  0.45310000  1.0
  B  B162  1  0.86400000  0.74690000  0.42860000  1.0
  B  B163  1  0.78140000  0.73120000  0.44950000  1.0
  B  B164  1  0.77280000  0.79060000  0.48720000  1.0
  B  B165  1  0.84840000  0.84350000  0.49000000  1.0
  B  B166  1  0.91620000  0.75670000  0.58620000  1.0
  B  B167  1  0.88000000  0.68620000  0.56070000  1.0
  B  B168  1  0.93760000  0.66240000  0.52400000  1.0
  B  B169  1  0.01180000  0.71420000  0.52690000  1.0
  B  B170  1  0.99900000  0.77430000  0.56600000  1.0
  B  B171  1  0.07370000  0.71760000  0.58620000  1.0
  B  B172  1  0.03530000  0.65170000  0.56050000  1.0
  B  B173  1  0.95440000  0.63190000  0.58220000  1.0
  B  B174  1  0.94150000  0.68990000  0.62070000  1.0
  B  B175  1  0.01520000  0.74400000  0.62370000  1.0
  B  B176  1  0.25700000  0.02980000  0.25380000  1.0
  B  B177  1  0.27940000  0.96120000  0.28560000  1.0
  B  B178  1  0.29900000  0.97720000  0.34780000  1.0
  B  B179  1  0.28910000  0.05520000  0.35430000  1.0
  B  B180  1  0.26240000  0.08820000  0.29600000  1.0
  B  B181  1  0.20620000  0.94750000  0.31440000  1.0
  B  B182  1  0.17940000  0.98160000  0.25490000  1.0
  B  B183  1  0.17050000  0.05790000  0.26120000  1.0
  B  B184  1  0.19050000  0.07540000  0.32510000  1.0
  B  B185  1  0.21210000  0.00670000  0.35740000  1.0
  B  B186  1  0.01350000  0.93350000  0.27120000  1.0
  B  B187  1  0.98740000  0.00120000  0.23870000  1.0
  B  B188  1  0.99340000  0.05920000  0.28160000  1.0
  B  B189  1  0.02020000  0.02750000  0.34050000  1.0
  B  B190  1  0.03260000  0.94960000  0.33400000  1.0
  B  B191  1  0.91420000  0.95210000  0.24150000  1.0
  B  B192  1  0.94090000  0.92000000  0.29990000  1.0
  B  B193  1  0.94430000  0.97740000  0.34160000  1.0
  B  B194  1  0.92040000  0.04470000  0.31020000  1.0
  B  B195  1  0.90110000  0.02810000  0.24720000  1.0
  B  B196  1  0.17710000  0.24790000  0.97660000  1.0
  B  B197  1  0.12670000  0.27670000  0.01580000  1.0
  B  B198  1  0.16740000  0.34610000  0.03700000  1.0
  B  B199  1  0.24470000  0.36010000  0.01260000  1.0
  B  B200  1  0.25230000  0.30010000  0.97520000  1.0
  B  B201  1  0.31860000  0.30670000  0.03310000  1.0
  B  B202  1  0.26710000  0.33570000  0.07210000  1.0
  B  B203  1  0.19180000  0.28340000  0.07350000  1.0
  B  B204  1  0.19770000  0.22090000  0.03650000  1.0
  B  B205  1  0.27760000  0.23430000  0.01160000  1.0
  B  B206  1  0.30320000  0.18510000  0.15020000  1.0
  B  B207  1  0.34530000  0.25450000  0.17060000  1.0
  B  B208  1  0.42420000  0.26760000  0.14470000  1.0
  B  B209  1  0.43080000  0.20500000  0.10870000  1.0
  B  B210  1  0.35500000  0.15350000  0.11130000  1.0
  B  B211  1  0.37520000  0.13040000  0.17190000  1.0
  B  B212  1  0.45360000  0.14200000  0.14700000  1.0
  B  B213  1  0.49600000  0.21150000  0.16660000  1.0
  B  B214  1  0.44290000  0.24270000  0.20510000  1.0
  B  B215  1  0.36970000  0.19240000  0.20760000  1.0
  B  B216  1  0.24950000  0.64310000  0.95220000  1.0
  B  B217  1  0.20950000  0.71320000  0.92720000  1.0
  B  B218  1  0.26650000  0.74080000  0.89190000  1.0
  B  B219  1  0.34070000  0.68830000  0.89400000  1.0
  B  B220  1  0.33140000  0.62850000  0.93060000  1.0
  B  B221  1  0.40360000  0.68340000  0.95310000  1.0
  B  B222  1  0.36400000  0.75310000  0.92860000  1.0
  B  B223  1  0.28140000  0.76880000  0.94950000  1.0
  B  B224  1  0.27280000  0.70940000  0.98720000  1.0
  B  B225  1  0.34840000  0.65650000  0.99000000  1.0
  B  B226  1  0.41620000  0.74330000  0.08620000  1.0
  B  B227  1  0.38000000  0.81380000  0.06070000  1.0
  B  B228  1  0.43760000  0.83760000  0.02400000  1.0
  B  B229  1  0.51180000  0.78580000  0.02690000  1.0
  B  B230  1  0.49900000  0.72570000  0.06600000  1.0
  B  B231  1  0.57370000  0.78240000  0.08620000  1.0
  B  B232  1  0.53530000  0.84830000  0.06050000  1.0
  B  B233  1  0.45440000  0.86810000  0.08220000  1.0
  B  B234  1  0.44150000  0.81010000  0.12070000  1.0
  B  B235  1  0.51520000  0.75600000  0.12370000  1.0
  B  B236  1  0.75700000  0.47020000  0.75380000  1.0
  B  B237  1  0.77940000  0.53880000  0.78560000  1.0
  B  B238  1  0.79900000  0.52280000  0.84780000  1.0
  B  B239  1  0.78910000  0.44480000  0.85430000  1.0
  B  B240  1  0.76240000  0.41180000  0.79600000  1.0
  B  B241  1  0.70620000  0.55250000  0.81440000  1.0
  B  B242  1  0.67940000  0.51840000  0.75490000  1.0
  B  B243  1  0.67050000  0.44210000  0.76120000  1.0
  B  B244  1  0.69050000  0.42460000  0.82510000  1.0
  B  B245  1  0.71210000  0.49330000  0.85740000  1.0
  B  B246  1  0.51350000  0.56650000  0.77120000  1.0
  B  B247  1  0.48740000  0.49880000  0.73870000  1.0
  B  B248  1  0.49340000  0.44080000  0.78160000  1.0
  B  B249  1  0.52020000  0.47250000  0.84050000  1.0
  B  B250  1  0.53260000  0.55040000  0.83400000  1.0
  B  B251  1  0.41420000  0.54790000  0.74150000  1.0
  B  B252  1  0.44090000  0.58000000  0.79990000  1.0
  B  B253  1  0.44430000  0.52260000  0.84160000  1.0
  B  B254  1  0.42040000  0.45530000  0.81020000  1.0
  B  B255  1  0.40110000  0.47190000  0.74720000  1.0
  H  H256  1  0.83900000  0.77400000  0.05100000  1.0
  H  H257  1  0.92400000  0.73800000  0.99100000  1.0
  H  H258  1  0.86300000  0.61700000  0.95900000  1.0
  H  H259  1  0.74600000  0.60600000  0.00200000  1.0
  H  H260  1  0.72800000  0.70300000  0.06300000  1.0
  H  H261  1  0.61890000  0.68170000  0.96490000  1.0
  H  H262  1  0.82400000  0.72200000  0.89600000  1.0
  H  H263  1  0.81900000  0.82000000  0.95200000  1.0
  H  H264  1  0.68250000  0.80100000  0.99950000  1.0
  H  H265  1  0.74890000  0.82800000  0.85990000  1.0
  H  H266  1  0.68400000  0.71000000  0.82200000  1.0
  H  H267  1  0.56700000  0.67000000  0.86200000  1.0
  H  H268  1  0.65200000  0.87800000  0.91300000  1.0
  H  H269  1  0.62700000  0.90100000  0.82100000  1.0
  H  H270  1  0.50500000  0.89600000  0.85900000  1.0
  H  H271  1  0.44530000  0.78800000  0.83130000  1.0
  H  H272  1  0.54400000  0.73900000  0.76500000  1.0
  H  H273  1  0.64000000  0.81000000  0.76400000  1.0
  H  H274  1  0.84840000  0.27850000  0.08240000  1.0
  H  H275  1  0.75720000  0.24400000  0.13220000  1.0
  H  H276  1  0.64870000  0.31900000  0.12770000  1.0
  H  H277  1  0.65500000  0.42100000  0.07600000  1.0
  H  H278  1  0.53420000  0.32400000  0.03820000  1.0
  H  H279  1  0.59650000  0.21000000  0.07350000  1.0
  H  H280  1  0.72270000  0.19300000  0.04270000  1.0
  H  H281  1  0.74760000  0.28200000  0.99060000  1.0
  H  H282  1  0.62690000  0.36200000  0.97790000  1.0
  H  H283  1  0.61210000  0.29400000  0.90610000  1.0
  H  H284  1  0.67180000  0.17600000  0.95180000  1.0
  H  H285  1  0.58400000  0.15000000  0.00800000  1.0
  H  H286  1  0.47600000  0.21700000  0.00200000  1.0
  H  H287  1  0.48680000  0.31500000  0.94580000  1.0
  H  H288  1  0.34600000  0.22800000  0.90900000  1.0
  H  H289  1  0.42900000  0.12300000  0.94400000  1.0
  H  H290  1  0.55390000  0.08600000  0.90990000  1.0
  H  H291  1  0.57050000  0.18400000  0.84750000  1.0
  H  H292  1  0.46200000  0.26800000  0.84800000  1.0
  H  H293  1  0.23100000  0.54400000  0.27100000  1.0
  H  H294  1  0.19000000  0.43200000  0.22700000  1.0
  H  H295  1  0.16170000  0.45200000  0.12870000  1.0
  H  H296  1  0.17900000  0.58000000  0.11300000  1.0
  H  H297  1  0.22020000  0.63200000  0.20820000  1.0
  H  H298  1  0.31250000  0.40200000  0.17950000  1.0
  H  H299  1  0.35280000  0.45900000  0.27080000  1.0
  H  H300  1  0.36900000  0.58700000  0.25900000  1.0
  H  H301  1  0.34480000  0.60000000  0.16080000  1.0
  H  H302  1  0.31310000  0.49460000  0.11010000  1.0
  H  H303  1  0.45720000  0.40900000  0.23820000  1.0
  H  H304  1  0.49370000  0.51000000  0.28970000  1.0
  H  H305  1  0.48710000  0.60400000  0.22410000  1.0
  H  H306  1  0.44750000  0.55100000  0.13050000  1.0
  H  H307  1  0.41560000  0.44100000  0.14060000  1.0
  H  H308  1  0.61400000  0.43400000  0.28600000  1.0
  H  H309  1  0.58270000  0.37500000  0.19370000  1.0
  H  H310  1  0.56200000  0.46700000  0.12900000  1.0
  H  H311  1  0.59870000  0.56700000  0.17270000  1.0
  H  H312  1  0.63900000  0.54000000  0.27000000  1.0
  H  H313  1  0.33900000  0.72600000  0.55100000  1.0
  H  H314  1  0.42400000  0.76200000  0.49100000  1.0
  H  H315  1  0.36300000  0.88300000  0.45900000  1.0
  H  H316  1  0.24600000  0.89400000  0.50200000  1.0
  H  H317  1  0.22800000  0.79700000  0.56300000  1.0
  H  H318  1  0.11890000  0.81830000  0.46490000  1.0
  H  H319  1  0.32400000  0.77800000  0.39600000  1.0
  H  H320  1  0.31900000  0.68000000  0.45200000  1.0
  H  H321  1  0.18250000  0.69900000  0.49950000  1.0
  H  H322  1  0.24890000  0.67200000  0.35990000  1.0
  H  H323  1  0.18400000  0.79000000  0.32200000  1.0
  H  H324  1  0.06700000  0.83000000  0.36200000  1.0
  H  H325  1  0.15200000  0.62200000  0.41300000  1.0
  H  H326  1  0.12700000  0.59900000  0.32100000  1.0
  H  H327  1  0.00500000  0.60400000  0.35900000  1.0
  H  H328  1  0.94530000  0.71200000  0.33130000  1.0
  H  H329  1  0.04400000  0.76100000  0.26500000  1.0
  H  H330  1  0.14000000  0.69000000  0.26400000  1.0
  H  H331  1  0.34840000  0.22150000  0.58240000  1.0
  H  H332  1  0.25720000  0.25600000  0.63220000  1.0
  H  H333  1  0.14870000  0.18100000  0.62770000  1.0
  H  H334  1  0.15500000  0.07900000  0.57600000  1.0
  H  H335  1  0.03420000  0.17600000  0.53820000  1.0
  H  H336  1  0.09650000  0.29000000  0.57350000  1.0
  H  H337  1  0.22270000  0.30700000  0.54270000  1.0
  H  H338  1  0.24760000  0.21800000  0.49060000  1.0
  H  H339  1  0.12690000  0.13800000  0.47790000  1.0
  H  H340  1  0.11210000  0.20600000  0.40610000  1.0
  H  H341  1  0.17180000  0.32400000  0.45180000  1.0
  H  H342  1  0.08400000  0.35000000  0.50800000  1.0
  H  H343  1  0.97600000  0.28300000  0.50200000  1.0
  H  H344  1  0.98680000  0.18500000  0.44580000  1.0
  H  H345  1  0.84600000  0.27200000  0.40900000  1.0
  H  H346  1  0.92900000  0.37700000  0.44400000  1.0
  H  H347  1  0.05390000  0.41400000  0.40990000  1.0
  H  H348  1  0.07050000  0.31600000  0.34750000  1.0
  H  H349  1  0.96200000  0.23200000  0.34800000  1.0
  H  H350  1  0.73100000  0.95600000  0.77100000  1.0
  H  H351  1  0.69000000  0.06800000  0.72700000  1.0
  H  H352  1  0.66170000  0.04800000  0.62870000  1.0
  H  H353  1  0.67900000  0.92000000  0.61300000  1.0
  H  H354  1  0.72020000  0.86800000  0.70820000  1.0
  H  H355  1  0.81250000  0.09800000  0.67950000  1.0
  H  H356  1  0.85280000  0.04100000  0.77080000  1.0
  H  H357  1  0.86900000  0.91300000  0.75900000  1.0
  H  H358  1  0.84480000  0.90000000  0.66080000  1.0
  H  H359  1  0.81310000  0.00540000  0.61010000  1.0
  H  H360  1  0.95720000  0.09100000  0.73820000  1.0
  H  H361  1  0.99370000  0.99000000  0.78970000  1.0
  H  H362  1  0.98710000  0.89600000  0.72410000  1.0
  H  H363  1  0.94750000  0.94900000  0.63050000  1.0
  H  H364  1  0.91560000  0.05900000  0.64060000  1.0
  H  H365  1  0.11400000  0.06600000  0.78600000  1.0
  H  H366  1  0.08270000  0.12500000  0.69370000  1.0
  H  H367  1  0.06200000  0.03300000  0.62900000  1.0
  H  H368  1  0.09870000  0.93300000  0.67270000  1.0
  H  H369  1  0.13900000  0.96000000  0.77000000  1.0
  H  H370  1  0.66100000  0.27400000  0.44900000  1.0
  H  H371  1  0.57600000  0.23800000  0.50900000  1.0
  H  H372  1  0.63700000  0.11700000  0.54100000  1.0
  H  H373  1  0.75400000  0.10600000  0.49800000  1.0
  H  H374  1  0.77200000  0.20300000  0.43700000  1.0
  H  H375  1  0.88110000  0.18170000  0.53510000  1.0
  H  H376  1  0.67600000  0.22200000  0.60400000  1.0
  H  H377  1  0.68100000  0.32000000  0.54800000  1.0
  H  H378  1  0.81750000  0.30100000  0.50050000  1.0
  H  H379  1  0.75110000  0.32800000  0.64010000  1.0
  H  H380  1  0.81600000  0.21000000  0.67800000  1.0
  H  H381  1  0.93300000  0.17000000  0.63800000  1.0
  H  H382  1  0.84800000  0.37800000  0.58700000  1.0
  H  H383  1  0.87300000  0.40100000  0.67900000  1.0
  H  H384  1  0.99500000  0.39600000  0.64100000  1.0
  H  H385  1  0.05470000  0.28800000  0.66870000  1.0
  H  H386  1  0.95600000  0.23900000  0.73500000  1.0
  H  H387  1  0.86000000  0.31000000  0.73600000  1.0
  H  H388  1  0.65160000  0.77850000  0.41760000  1.0
  H  H389  1  0.74280000  0.74400000  0.36780000  1.0
  H  H390  1  0.85130000  0.81900000  0.37230000  1.0
  H  H391  1  0.84500000  0.92100000  0.42400000  1.0
  H  H392  1  0.96580000  0.82400000  0.46180000  1.0
  H  H393  1  0.90350000  0.71000000  0.42650000  1.0
  H  H394  1  0.77730000  0.69300000  0.45730000  1.0
  H  H395  1  0.75240000  0.78200000  0.50940000  1.0
  H  H396  1  0.87310000  0.86200000  0.52210000  1.0
  H  H397  1  0.88790000  0.79400000  0.59390000  1.0
  H  H398  1  0.82820000  0.67600000  0.54820000  1.0
  H  H399  1  0.91600000  0.65000000  0.49200000  1.0
  H  H400  1  0.02400000  0.71700000  0.49800000  1.0
  H  H401  1  0.01320000  0.81500000  0.55420000  1.0
  H  H402  1  0.15400000  0.72800000  0.59100000  1.0
  H  H403  1  0.07100000  0.62300000  0.55600000  1.0
  H  H404  1  0.94610000  0.58600000  0.59010000  1.0
  H  H405  1  0.92950000  0.68400000  0.65250000  1.0
  H  H406  1  0.03800000  0.76800000  0.65200000  1.0
  H  H407  1  0.26900000  0.04400000  0.22900000  1.0
  H  H408  1  0.31000000  0.93200000  0.27300000  1.0
  H  H409  1  0.33830000  0.95200000  0.37130000  1.0
  H  H410  1  0.32100000  0.08000000  0.38700000  1.0
  H  H411  1  0.27980000  0.13200000  0.29180000  1.0
  H  H412  1  0.18750000  0.90200000  0.32050000  1.0
  H  H413  1  0.14720000  0.95900000  0.22920000  1.0
  H  H414  1  0.13100000  0.08700000  0.24100000  1.0
  H  H415  1  0.15520000  0.10000000  0.33920000  1.0
  H  H416  1  0.18690000  0.99460000  0.38990000  1.0
  H  H417  1  0.04280000  0.90900000  0.26180000  1.0
  H  H418  1  0.00630000  0.01000000  0.21030000  1.0
  H  H419  1  0.01290000  0.10400000  0.27590000  1.0
  H  H420  1  0.05250000  0.05100000  0.36950000  1.0
  H  H421  1  0.08440000  0.94100000  0.35940000  1.0
  H  H422  1  0.88600000  0.93400000  0.21400000  1.0
  H  H423  1  0.91730000  0.87500000  0.30630000  1.0
  H  H424  1  0.93800000  0.96700000  0.37100000  1.0
  H  H425  1  0.90130000  0.06700000  0.32730000  1.0
  H  H426  1  0.86100000  0.04000000  0.23000000  1.0
  H  H427  1  0.16100000  0.22600000  0.94900000  1.0
  H  H428  1  0.07600000  0.26200000  0.00900000  1.0
  H  H429  1  0.13700000  0.38300000  0.04100000  1.0
  H  H430  1  0.25400000  0.39400000  0.99800000  1.0
  H  H431  1  0.27200000  0.29700000  0.93700000  1.0
  H  H432  1  0.38110000  0.31830000  0.03510000  1.0
  H  H433  1  0.17600000  0.27800000  0.10400000  1.0
  H  H434  1  0.18100000  0.18000000  0.04800000  1.0
  H  H435  1  0.31750000  0.19900000  0.00050000  1.0
  H  H436  1  0.25110000  0.17200000  0.14010000  1.0
  H  H437  1  0.31600000  0.29000000  0.17800000  1.0
  H  H438  1  0.43300000  0.33000000  0.13800000  1.0
  H  H439  1  0.34800000  0.12200000  0.08700000  1.0
  H  H440  1  0.37300000  0.09900000  0.17900000  1.0
  H  H441  1  0.49500000  0.10400000  0.14100000  1.0
  H  H442  1  0.55470000  0.21200000  0.16870000  1.0
  H  H443  1  0.45600000  0.26100000  0.23500000  1.0
  H  H444  1  0.36000000  0.19000000  0.23600000  1.0
  H  H445  1  0.15160000  0.72150000  0.91760000  1.0
  H  H446  1  0.24280000  0.75600000  0.86780000  1.0
  H  H447  1  0.35130000  0.68100000  0.87230000  1.0
  H  H448  1  0.34500000  0.57900000  0.92400000  1.0
  H  H449  1  0.46580000  0.67600000  0.96180000  1.0
  H  H450  1  0.40350000  0.79000000  0.92650000  1.0
  H  H451  1  0.27730000  0.80700000  0.95730000  1.0
  H  H452  1  0.25240000  0.71800000  0.00940000  1.0
  H  H453  1  0.37310000  0.63800000  0.02210000  1.0
  H  H454  1  0.38790000  0.70600000  0.09390000  1.0
  H  H455  1  0.32820000  0.82400000  0.04820000  1.0
  H  H456  1  0.41600000  0.85000000  0.99200000  1.0
  H  H457  1  0.52400000  0.78300000  0.99800000  1.0
  H  H458  1  0.51320000  0.68500000  0.05420000  1.0
  H  H459  1  0.65400000  0.77200000  0.09100000  1.0
  H  H460  1  0.57100000  0.87700000  0.05600000  1.0
  H  H461  1  0.44610000  0.91400000  0.09010000  1.0
  H  H462  1  0.42950000  0.81600000  0.15250000  1.0
  H  H463  1  0.53800000  0.73200000  0.15200000  1.0
  H  H464  1  0.76900000  0.45600000  0.72900000  1.0
  H  H465  1  0.81000000  0.56800000  0.77300000  1.0
  H  H466  1  0.83830000  0.54800000  0.87130000  1.0
  H  H467  1  0.82100000  0.42000000  0.88700000  1.0
  H  H468  1  0.77980000  0.36800000  0.79180000  1.0
  H  H469  1  0.68750000  0.59800000  0.82050000  1.0
  H  H470  1  0.64720000  0.54100000  0.72920000  1.0
  H  H471  1  0.63100000  0.41300000  0.74100000  1.0
  H  H472  1  0.65520000  0.40000000  0.83920000  1.0
  H  H473  1  0.68690000  0.50540000  0.88990000  1.0
  H  H474  1  0.54280000  0.59100000  0.76180000  1.0
  H  H475  1  0.50630000  0.49000000  0.71030000  1.0
  H  H476  1  0.51290000  0.39600000  0.77590000  1.0
  H  H477  1  0.55250000  0.44900000  0.86950000  1.0
  H  H478  1  0.58440000  0.55900000  0.85940000  1.0
  H  H479  1  0.38600000  0.56600000  0.71400000  1.0
  H  H480  1  0.41730000  0.62500000  0.80630000  1.0
  H  H481  1  0.43800000  0.53300000  0.87100000  1.0
  H  H482  1  0.40130000  0.43300000  0.82730000  1.0
  H  H483  1  0.36100000  0.46000000  0.73000000  1.0
  C  C484  1  0.89510000  0.64430000  0.06190000  1.0
  C  C485  1  0.83741000  0.67760000  0.01941000  1.0
  C  C486  1  0.71922000  0.74050000  0.93082000  1.0
  C  C487  1  0.65976000  0.77150000  0.88676000  1.0
  C  C488  1  0.54270000  0.83170000  0.79690000  1.0
  C  C489  1  0.80410000  0.36760000  0.14790000  1.0
  C  C490  1  0.74873000  0.33410000  0.10413000  1.0
  C  C491  1  0.63755000  0.26830000  0.01475000  1.0
  C  C492  1  0.58122000  0.23640000  0.97072000  1.0
  C  C493  1  0.46660000  0.16990000  0.88210000  1.0
  C  C494  1  0.41110000  0.13480000  0.83990000  1.0
  C  C495  1  0.08810000  0.53510000  0.18490000  1.0
  C  C496  1  0.17686000  0.52580000  0.19016000  1.0
  C  C497  1  0.35579000  0.50950000  0.19979000  1.0
  C  C498  1  0.44415000  0.49990000  0.20455000  1.0
  C  C499  1  0.62107000  0.47880000  0.21427000  1.0
  C  C500  1  0.48690000  0.86260000  0.75310000  1.0
  C  C501  1  0.70910000  0.46730000  0.21900000  1.0
  C  C502  1  0.39510000  0.85570000  0.56190000  1.0
  C  C503  1  0.33741000  0.82240000  0.51941000  1.0
  C  C504  1  0.21922000  0.75950000  0.43082000  1.0
  C  C505  1  0.15976000  0.72850000  0.38676000  1.0
  C  C506  1  0.04270000  0.66830000  0.29690000  1.0
  C  C507  1  0.30410000  0.13240000  0.64790000  1.0
  C  C508  1  0.24873000  0.16590000  0.60413000  1.0
  C  C509  1  0.13755000  0.23170000  0.51475000  1.0
  C  C510  1  0.08122000  0.26360000  0.47072000  1.0
  C  C511  1  0.96660000  0.33010000  0.38210000  1.0
  C  C512  1  0.91110000  0.36520000  0.33990000  1.0
  C  C513  1  0.58810000  0.96490000  0.68490000  1.0
  C  C514  1  0.67686000  0.97420000  0.69016000  1.0
  C  C515  1  0.85579000  0.99050000  0.69979000  1.0
  C  C516  1  0.94415000  0.00010000  0.70455000  1.0
  C  C517  1  0.12107000  0.02120000  0.71427000  1.0
  C  C518  1  0.98690000  0.63740000  0.25310000  1.0
  C  C519  1  0.20910000  0.03270000  0.71900000  1.0
  C  C520  1  0.60490000  0.14430000  0.43810000  1.0
  C  C521  1  0.66259000  0.17760000  0.48059000  1.0
  C  C522  1  0.78078000  0.24050000  0.56918000  1.0
  C  C523  1  0.84024000  0.27150000  0.61324000  1.0
  C  C524  1  0.95730000  0.33170000  0.70310000  1.0
  C  C525  1  0.69590000  0.86760000  0.35210000  1.0
  C  C526  1  0.75127000  0.83410000  0.39587000  1.0
  C  C527  1  0.86245000  0.76830000  0.48525000  1.0
  C  C528  1  0.91878000  0.73640000  0.52928000  1.0
  C  C529  1  0.03340000  0.66990000  0.61790000  1.0
  C  C530  1  0.08890000  0.63480000  0.66010000  1.0
  C  C531  1  0.41190000  0.03510000  0.31510000  1.0
  C  C532  1  0.32314000  0.02580000  0.30984000  1.0
  C  C533  1  0.14421000  0.00950000  0.30021000  1.0
  C  C534  1  0.05585000  0.99990000  0.29545000  1.0
  C  C535  1  0.87893000  0.97880000  0.28573000  1.0
  C  C536  1  0.01310000  0.36260000  0.74690000  1.0
  C  C537  1  0.79090000  0.96730000  0.28100000  1.0
  C  C538  1  0.10490000  0.35570000  0.93810000  1.0
  C  C539  1  0.16259000  0.32240000  0.98059000  1.0
  C  C540  1  0.28078000  0.25950000  0.06918000  1.0
  C  C541  1  0.34024000  0.22850000  0.11324000  1.0
  C  C542  1  0.45730000  0.16830000  0.20310000  1.0
  C  C543  1  0.19590000  0.63240000  0.85210000  1.0
  C  C544  1  0.25127000  0.66590000  0.89587000  1.0
  C  C545  1  0.36245000  0.73170000  0.98525000  1.0
  C  C546  1  0.41878000  0.76360000  0.02928000  1.0
  C  C547  1  0.53340000  0.83010000  0.11790000  1.0
  C  C548  1  0.58890000  0.86520000  0.16010000  1.0
  C  C549  1  0.91190000  0.46490000  0.81510000  1.0
  C  C550  1  0.82314000  0.47420000  0.80984000  1.0
  C  C551  1  0.64421000  0.49050000  0.80021000  1.0
  C  C552  1  0.55585000  0.50010000  0.79545000  1.0
  C  C553  1  0.37893000  0.52120000  0.78573000  1.0
  C  C554  1  0.51310000  0.13740000  0.24690000  1.0
  C  C555  1  0.29090000  0.53270000  0.78100000  1.0
  O  O556  1  0.88640000  0.53690000  0.15907000  1.0
  O  O557  1  0.91187000  0.46528000  0.23975000  1.0
  O  O558  1  0.89369000  0.66282000  0.10359000  1.0
  O  O559  1  0.93504000  0.60454000  0.05304000  1.0
  O  O560  1  0.83665000  0.41226000  0.13915000  1.0
  O  O561  1  0.80758000  0.34576000  0.18848000  1.0
  O  O562  1  0.40605000  0.15623000  0.79845000  1.0
  O  O563  1  0.37682000  0.09140000  0.84832000  1.0
  O  O564  1  0.05764000  0.49746000  0.20554000  1.0
  O  O565  1  0.05656000  0.57856000  0.15996000  1.0
  O  O566  1  0.48274000  0.84041000  0.71284000  1.0
  O  O567  1  0.45264000  0.90886000  0.76114000  1.0
  O  O568  1  0.73881000  0.50095000  0.19381000  1.0
  O  O569  1  0.74137000  0.42556000  0.24567000  1.0
  O  O570  1  0.38640000  0.96310000  0.65907000  1.0
  O  O571  1  0.41187000  0.03472000  0.73975000  1.0
  O  O572  1  0.39369000  0.83718000  0.60359000  1.0
  O  O573  1  0.43504000  0.89546000  0.55304000  1.0
  O  O574  1  0.33665000  0.08774000  0.63915000  1.0
  O  O575  1  0.30758000  0.15424000  0.68848000  1.0
  O  O576  1  0.90605000  0.34377000  0.29845000  1.0
  O  O577  1  0.87682000  0.40860000  0.34832000  1.0
  O  O578  1  0.55764000  0.00254000  0.70554000  1.0
  O  O579  1  0.55656000  0.92144000  0.65996000  1.0
  O  O580  1  0.98274000  0.65959000  0.21284000  1.0
  O  O581  1  0.95264000  0.59114000  0.26114000  1.0
  O  O582  1  0.23881000  0.99905000  0.69381000  1.0
  O  O583  1  0.24137000  0.07444000  0.74567000  1.0
  O  O584  1  0.61360000  0.03690000  0.34093000  1.0
  O  O585  1  0.58813000  0.96528000  0.26025000  1.0
  O  O586  1  0.60631000  0.16282000  0.39641000  1.0
  O  O587  1  0.56496000  0.10454000  0.44696000  1.0
  O  O588  1  0.66335000  0.91226000  0.36085000  1.0
  O  O589  1  0.69242000  0.84576000  0.31152000  1.0
  O  O590  1  0.09395000  0.65623000  0.70155000  1.0
  O  O591  1  0.12318000  0.59140000  0.65168000  1.0
  O  O592  1  0.44236000  0.99746000  0.29446000  1.0
  O  O593  1  0.44344000  0.07856000  0.34004000  1.0
  O  O594  1  0.01726000  0.34041000  0.78716000  1.0
  O  O595  1  0.04736000  0.40886000  0.73886000  1.0
  O  O596  1  0.76119000  0.00095000  0.30619000  1.0
  O  O597  1  0.75863000  0.92556000  0.25433000  1.0
  O  O598  1  0.11360000  0.46310000  0.84093000  1.0
  O  O599  1  0.08813000  0.53472000  0.76025000  1.0
  O  O600  1  0.10631000  0.33718000  0.89641000  1.0
  O  O601  1  0.06496000  0.39546000  0.94696000  1.0
  O  O602  1  0.16335000  0.58774000  0.86085000  1.0
  O  O603  1  0.19242000  0.65424000  0.81152000  1.0
  O  O604  1  0.59395000  0.84377000  0.20155000  1.0
  O  O605  1  0.62318000  0.90860000  0.15168000  1.0
  O  O606  1  0.94236000  0.50254000  0.79446000  1.0
  O  O607  1  0.94344000  0.42144000  0.84004000  1.0
  O  O608  1  0.51726000  0.15959000  0.28716000  1.0
  O  O609  1  0.54736000  0.09114000  0.23886000  1.0
  O  O610  1  0.26119000  0.49905000  0.80619000  1.0
  O  O611  1  0.25863000  0.57444000  0.75433000  1.0
