# generated using pymatgen
data_Nb3CuH3C5S3(N2Cl3)2
_symmetry_space_group_name_H-M   'P 1'
_cell_length_a   12.34310000
_cell_length_b   12.95440000
_cell_length_c   19.39340000
_cell_angle_alpha   90.00000000
_cell_angle_beta   91.94400000
_cell_angle_gamma   90.00000000
_symmetry_Int_Tables_number   1
_chemical_formula_structural   Nb3CuH3C5S3(N2Cl3)2
_chemical_formula_sum   'Nb12 Cu4 H12 C20 S12 N16 Cl24'
_cell_volume   3099.17057266
_cell_formula_units_Z   4
loop_
 _symmetry_equiv_pos_site_id
 _symmetry_equiv_pos_as_xyz
  1  'x, y, z'
loop_
 _atom_site_type_symbol
 _atom_site_label
 _atom_site_symmetry_multiplicity
 _atom_site_fract_x
 _atom_site_fract_y
 _atom_site_fract_z
 _atom_site_occupancy
  Nb  Nb0  1  0.10101000  0.89969000  0.05461000  1.0
  Nb  Nb1  1  0.12477000  0.10701000  0.99601000  1.0
  Nb  Nb2  1  0.95200000  0.06401000  0.09113000  1.0
  Nb  Nb3  1  0.39899000  0.39969000  0.44539000  1.0
  Nb  Nb4  1  0.37523000  0.60701000  0.50399000  1.0
  Nb  Nb5  1  0.54800000  0.56401000  0.40887000  1.0
  Nb  Nb6  1  0.89899000  0.10031000  0.94539000  1.0
  Nb  Nb7  1  0.87523000  0.89299000  0.00399000  1.0
  Nb  Nb8  1  0.04800000  0.93599000  0.90887000  1.0
  Nb  Nb9  1  0.60101000  0.60031000  0.55461000  1.0
  Nb  Nb10  1  0.62477000  0.39299000  0.49601000  1.0
  Nb  Nb11  1  0.45200000  0.43599000  0.59113000  1.0
  Cu  Cu12  1  0.51976000  0.76125000  0.13537000  1.0
  Cu  Cu13  1  0.98024000  0.26125000  0.36463000  1.0
  Cu  Cu14  1  0.48024000  0.23875000  0.86463000  1.0
  Cu  Cu15  1  0.01976000  0.73875000  0.63537000  1.0
  H  H16  1  0.60280000  0.13390000  0.11150000  1.0
  H  H17  1  0.47640000  0.14210000  0.09110000  1.0
  H  H18  1  0.56080000  0.10830000  0.03440000  1.0
  H  H19  1  0.89720000  0.63390000  0.38850000  1.0
  H  H20  1  0.02360000  0.64210000  0.40890000  1.0
  H  H21  1  0.93920000  0.60830000  0.46560000  1.0
  H  H22  1  0.39720000  0.86610000  0.88850000  1.0
  H  H23  1  0.52360000  0.85790000  0.90890000  1.0
  H  H24  1  0.43920000  0.89170000  0.96560000  1.0
  H  H25  1  0.10280000  0.36610000  0.61150000  1.0
  H  H26  1  0.97640000  0.35790000  0.59110000  1.0
  H  H27  1  0.06080000  0.39170000  0.53440000  1.0
  C  C28  1  0.27930000  0.75260000  0.14580000  1.0
  C  C29  1  0.34080000  0.26250000  0.98400000  1.0
  C  C30  1  0.86420000  0.17580000  0.23480000  1.0
  C  C31  1  0.52910000  0.99680000  0.10220000  1.0
  C  C32  1  0.54340000  0.10390000  0.08330000  1.0
  C  C33  1  0.22070000  0.25260000  0.35420000  1.0
  C  C34  1  0.15920000  0.76250000  0.51600000  1.0
  C  C35  1  0.63580000  0.67580000  0.26520000  1.0
  C  C36  1  0.97090000  0.49680000  0.39780000  1.0
  C  C37  1  0.95660000  0.60390000  0.41670000  1.0
  C  C38  1  0.72070000  0.24740000  0.85420000  1.0
  C  C39  1  0.65920000  0.73750000  0.01600000  1.0
  C  C40  1  0.13580000  0.82420000  0.76520000  1.0
  C  C41  1  0.47090000  0.00320000  0.89780000  1.0
  C  C42  1  0.45660000  0.89610000  0.91670000  1.0
  C  C43  1  0.77930000  0.74740000  0.64580000  1.0
  C  C44  1  0.84080000  0.23750000  0.48400000  1.0
  C  C45  1  0.36420000  0.32420000  0.73480000  1.0
  C  C46  1  0.02910000  0.50320000  0.60220000  1.0
  C  C47  1  0.04340000  0.39610000  0.58330000  1.0
  S  S48  1  0.37418000  0.69596000  0.19265000  1.0
  S  S49  1  0.45543000  0.32258000  0.97174000  1.0
  S  S50  1  0.81592000  0.23879000  0.29988000  1.0
  S  S51  1  0.12582000  0.19596000  0.30735000  1.0
  S  S52  1  0.04457000  0.82258000  0.52826000  1.0
  S  S53  1  0.68408000  0.73879000  0.20012000  1.0
  S  S54  1  0.62582000  0.30404000  0.80735000  1.0
  S  S55  1  0.54457000  0.67742000  0.02826000  1.0
  S  S56  1  0.18408000  0.76121000  0.70012000  1.0
  S  S57  1  0.87418000  0.80404000  0.69265000  1.0
  S  S58  1  0.95543000  0.17742000  0.47174000  1.0
  S  S59  1  0.31592000  0.26121000  0.79988000  1.0
  N  N60  1  0.21180000  0.79410000  0.11350000  1.0
  N  N61  1  0.26060000  0.21800000  0.99170000  1.0
  N  N62  1  0.89880000  0.13380000  0.18810000  1.0
  N  N63  1  0.51650000  0.91260000  0.11640000  1.0
  N  N64  1  0.28820000  0.29410000  0.38650000  1.0
  N  N65  1  0.23940000  0.71800000  0.50830000  1.0
  N  N66  1  0.60120000  0.63380000  0.31190000  1.0
  N  N67  1  0.98350000  0.41260000  0.38360000  1.0
  N  N68  1  0.78820000  0.20590000  0.88650000  1.0
  N  N69  1  0.73940000  0.78200000  0.00830000  1.0
  N  N70  1  0.10120000  0.86620000  0.81190000  1.0
  N  N71  1  0.48350000  0.08740000  0.88360000  1.0
  N  N72  1  0.71180000  0.70590000  0.61350000  1.0
  N  N73  1  0.76060000  0.28200000  0.49170000  1.0
  N  N74  1  0.39880000  0.36620000  0.68810000  1.0
  N  N75  1  0.01650000  0.58740000  0.61640000  1.0
  Cl  Cl76  1  0.97285000  0.75622000  0.06822000  1.0
  Cl  Cl77  1  0.17676000  0.80728000  0.95662000  1.0
  Cl  Cl78  1  0.26537000  0.00714000  0.05895000  1.0
  Cl  Cl79  1  0.06079000  0.95721000  0.17169000  1.0
  Cl  Cl80  1  0.20176000  0.05008000  0.88721000  1.0
  Cl  Cl81  1  0.09085000  0.20022000  0.10345000  1.0
  Cl  Cl82  1  0.52715000  0.25622000  0.43178000  1.0
  Cl  Cl83  1  0.32324000  0.30728000  0.54338000  1.0
  Cl  Cl84  1  0.23463000  0.50714000  0.44105000  1.0
  Cl  Cl85  1  0.43921000  0.45721000  0.32831000  1.0
  Cl  Cl86  1  0.29824000  0.55008000  0.61279000  1.0
  Cl  Cl87  1  0.40915000  0.70022000  0.39655000  1.0
  Cl  Cl88  1  0.02715000  0.24378000  0.93178000  1.0
  Cl  Cl89  1  0.82324000  0.19272000  0.04338000  1.0
  Cl  Cl90  1  0.73463000  0.99286000  0.94105000  1.0
  Cl  Cl91  1  0.93921000  0.04279000  0.82831000  1.0
  Cl  Cl92  1  0.79824000  0.94992000  0.11279000  1.0
  Cl  Cl93  1  0.90915000  0.79978000  0.89655000  1.0
  Cl  Cl94  1  0.47285000  0.74378000  0.56822000  1.0
  Cl  Cl95  1  0.67676000  0.69272000  0.45662000  1.0
  Cl  Cl96  1  0.76537000  0.49286000  0.55895000  1.0
  Cl  Cl97  1  0.56079000  0.54279000  0.67169000  1.0
  Cl  Cl98  1  0.70176000  0.44992000  0.38721000  1.0
  Cl  Cl99  1  0.59085000  0.29978000  0.60345000  1.0
