# generated using pymatgen
data_NbNiH16C16N4(OF2)2
_symmetry_space_group_name_H-M   'P 1'
_cell_length_a   9.90300000
_cell_length_b   9.90300000
_cell_length_c   15.72000000
_cell_angle_alpha   90.00000000
_cell_angle_beta   90.00000000
_cell_angle_gamma   90.00000000
_symmetry_Int_Tables_number   1
_chemical_formula_structural   NbNiH16C16N4(OF2)2
_chemical_formula_sum   'Nb4 Ni4 H64 C64 N16 O8 F16'
_cell_volume   1541.65110948
_cell_formula_units_Z   4
loop_
 _symmetry_equiv_pos_site_id
 _symmetry_equiv_pos_as_xyz
  1  'x, y, z'
loop_
 _atom_site_type_symbol
 _atom_site_label
 _atom_site_symmetry_multiplicity
 _atom_site_fract_x
 _atom_site_fract_y
 _atom_site_fract_z
 _atom_site_occupancy
  Nb  Nb0  1  0.50000000  0.00000000  0.00000000  1.0
  Nb  Nb1  1  0.00000000  0.50000000  0.50000000  1.0
  Nb  Nb2  1  0.00000000  0.50000000  0.00000000  1.0
  Nb  Nb3  1  0.50000000  0.00000000  0.50000000  1.0
  Ni  Ni4  1  0.50000000  0.00000000  0.25000000  1.0
  Ni  Ni5  1  0.00000000  0.50000000  0.25000000  1.0
  Ni  Ni6  1  0.50000000  0.00000000  0.75000000  1.0
  Ni  Ni7  1  0.00000000  0.50000000  0.75000000  1.0
  H  H8  1  0.73690000  0.10010000  0.14260000  1.0
  H  H9  1  0.59830000  0.23610000  0.35830000  1.0
  H  H10  1  0.23690000  0.60010000  0.64260000  1.0
  H  H11  1  0.09830000  0.73610000  0.85830000  1.0
  H  H12  1  0.26310000  0.89990000  0.14260000  1.0
  H  H13  1  0.40170000  0.76390000  0.35830000  1.0
  H  H14  1  0.76310000  0.39990000  0.64260000  1.0
  H  H15  1  0.90170000  0.26390000  0.85830000  1.0
  H  H16  1  0.89990000  0.73690000  0.14260000  1.0
  H  H17  1  0.76390000  0.59830000  0.35830000  1.0
  H  H18  1  0.39990000  0.23690000  0.64260000  1.0
  H  H19  1  0.26390000  0.09830000  0.85830000  1.0
  H  H20  1  0.10010000  0.26310000  0.14260000  1.0
  H  H21  1  0.23610000  0.40170000  0.35830000  1.0
  H  H22  1  0.60010000  0.76310000  0.64260000  1.0
  H  H23  1  0.73610000  0.90170000  0.85830000  1.0
  H  H24  1  0.26310000  0.10010000  0.35740000  1.0
  H  H25  1  0.40170000  0.23610000  0.14170000  1.0
  H  H26  1  0.76310000  0.60010000  0.85740000  1.0
  H  H27  1  0.90170000  0.73610000  0.64170000  1.0
  H  H28  1  0.73690000  0.89990000  0.35740000  1.0
  H  H29  1  0.59830000  0.76390000  0.14170000  1.0
  H  H30  1  0.23690000  0.39990000  0.85740000  1.0
  H  H31  1  0.09830000  0.26390000  0.64170000  1.0
  H  H32  1  0.10010000  0.73690000  0.35740000  1.0
  H  H33  1  0.23610000  0.59830000  0.14170000  1.0
  H  H34  1  0.60010000  0.23690000  0.85740000  1.0
  H  H35  1  0.73610000  0.09830000  0.64170000  1.0
  H  H36  1  0.89990000  0.26310000  0.35740000  1.0
  H  H37  1  0.76390000  0.40170000  0.14170000  1.0
  H  H38  1  0.39990000  0.76310000  0.85740000  1.0
  H  H39  1  0.26390000  0.90170000  0.64170000  1.0
  H  H40  1  0.26310000  0.89990000  0.85740000  1.0
  H  H41  1  0.40170000  0.76390000  0.64170000  1.0
  H  H42  1  0.76310000  0.39990000  0.35740000  1.0
  H  H43  1  0.90170000  0.26390000  0.14170000  1.0
  H  H44  1  0.73690000  0.10010000  0.85740000  1.0
  H  H45  1  0.59830000  0.23610000  0.64170000  1.0
  H  H46  1  0.23690000  0.60010000  0.35740000  1.0
  H  H47  1  0.09830000  0.73610000  0.14170000  1.0
  H  H48  1  0.10010000  0.26310000  0.85740000  1.0
  H  H49  1  0.23610000  0.40170000  0.64170000  1.0
  H  H50  1  0.60010000  0.76310000  0.35740000  1.0
  H  H51  1  0.73610000  0.90170000  0.14170000  1.0
  H  H52  1  0.89990000  0.73690000  0.85740000  1.0
  H  H53  1  0.76390000  0.59830000  0.64170000  1.0
  H  H54  1  0.39990000  0.23690000  0.35740000  1.0
  H  H55  1  0.26390000  0.09830000  0.14170000  1.0
  H  H56  1  0.73690000  0.89990000  0.64260000  1.0
  H  H57  1  0.59830000  0.76390000  0.85830000  1.0
  H  H58  1  0.23690000  0.39990000  0.14260000  1.0
  H  H59  1  0.09830000  0.26390000  0.35830000  1.0
  H  H60  1  0.26310000  0.10010000  0.64260000  1.0
  H  H61  1  0.40170000  0.23610000  0.85830000  1.0
  H  H62  1  0.76310000  0.60010000  0.14260000  1.0
  H  H63  1  0.90170000  0.73610000  0.35830000  1.0
  H  H64  1  0.89990000  0.26310000  0.64260000  1.0
  H  H65  1  0.76390000  0.40170000  0.85830000  1.0
  H  H66  1  0.39990000  0.76310000  0.14260000  1.0
  H  H67  1  0.26390000  0.90170000  0.35830000  1.0
  H  H68  1  0.10010000  0.73690000  0.64260000  1.0
  H  H69  1  0.23610000  0.59830000  0.85830000  1.0
  H  H70  1  0.60010000  0.23690000  0.14260000  1.0
  H  H71  1  0.73610000  0.09830000  0.35830000  1.0
  C  C72  1  0.74090000  0.16120000  0.18750000  1.0
  C  C73  1  0.65930000  0.23990000  0.31340000  1.0
  C  C74  1  0.24090000  0.66120000  0.68750000  1.0
  C  C75  1  0.15930000  0.73990000  0.81340000  1.0
  C  C76  1  0.25910000  0.83880000  0.18750000  1.0
  C  C77  1  0.34070000  0.76010000  0.31340000  1.0
  C  C78  1  0.75910000  0.33880000  0.68750000  1.0
  C  C79  1  0.84070000  0.26010000  0.81340000  1.0
  C  C80  1  0.83880000  0.74090000  0.18750000  1.0
  C  C81  1  0.76010000  0.65930000  0.31340000  1.0
  C  C82  1  0.33880000  0.24090000  0.68750000  1.0
  C  C83  1  0.26010000  0.15930000  0.81340000  1.0
  C  C84  1  0.16120000  0.25910000  0.18750000  1.0
  C  C85  1  0.23990000  0.34070000  0.31340000  1.0
  C  C86  1  0.66120000  0.75910000  0.68750000  1.0
  C  C87  1  0.73990000  0.84070000  0.81340000  1.0
  C  C88  1  0.25910000  0.16120000  0.31250000  1.0
  C  C89  1  0.34070000  0.23990000  0.18660000  1.0
  C  C90  1  0.75910000  0.66120000  0.81250000  1.0
  C  C91  1  0.84070000  0.73990000  0.68660000  1.0
  C  C92  1  0.74090000  0.83880000  0.31250000  1.0
  C  C93  1  0.65930000  0.76010000  0.18660000  1.0
  C  C94  1  0.24090000  0.33880000  0.81250000  1.0
  C  C95  1  0.15930000  0.26010000  0.68660000  1.0
  C  C96  1  0.16120000  0.74090000  0.31250000  1.0
  C  C97  1  0.23990000  0.65930000  0.18660000  1.0
  C  C98  1  0.66120000  0.24090000  0.81250000  1.0
  C  C99  1  0.73990000  0.15930000  0.68660000  1.0
  C  C100  1  0.83880000  0.25910000  0.31250000  1.0
  C  C101  1  0.76010000  0.34070000  0.18660000  1.0
  C  C102  1  0.33880000  0.75910000  0.81250000  1.0
  C  C103  1  0.26010000  0.84070000  0.68660000  1.0
  C  C104  1  0.25910000  0.83880000  0.81250000  1.0
  C  C105  1  0.34070000  0.76010000  0.68660000  1.0
  C  C106  1  0.75910000  0.33880000  0.31250000  1.0
  C  C107  1  0.84070000  0.26010000  0.18660000  1.0
  C  C108  1  0.74090000  0.16120000  0.81250000  1.0
  C  C109  1  0.65930000  0.23990000  0.68660000  1.0
  C  C110  1  0.24090000  0.66120000  0.31250000  1.0
  C  C111  1  0.15930000  0.73990000  0.18660000  1.0
  C  C112  1  0.16120000  0.25910000  0.81250000  1.0
  C  C113  1  0.23990000  0.34070000  0.68660000  1.0
  C  C114  1  0.66120000  0.75910000  0.31250000  1.0
  C  C115  1  0.73990000  0.84070000  0.18660000  1.0
  C  C116  1  0.83880000  0.74090000  0.81250000  1.0
  C  C117  1  0.76010000  0.65930000  0.68660000  1.0
  C  C118  1  0.33880000  0.24090000  0.31250000  1.0
  C  C119  1  0.26010000  0.15930000  0.18660000  1.0
  C  C120  1  0.74090000  0.83880000  0.68750000  1.0
  C  C121  1  0.65930000  0.76010000  0.81340000  1.0
  C  C122  1  0.24090000  0.33880000  0.18750000  1.0
  C  C123  1  0.15930000  0.26010000  0.31340000  1.0
  C  C124  1  0.25910000  0.16120000  0.68750000  1.0
  C  C125  1  0.34070000  0.23990000  0.81340000  1.0
  C  C126  1  0.75910000  0.66120000  0.18750000  1.0
  C  C127  1  0.84070000  0.73990000  0.31340000  1.0
  C  C128  1  0.83880000  0.25910000  0.68750000  1.0
  C  C129  1  0.76010000  0.34070000  0.81340000  1.0
  C  C130  1  0.33880000  0.75910000  0.18750000  1.0
  C  C131  1  0.26010000  0.84070000  0.31340000  1.0
  C  C132  1  0.16120000  0.74090000  0.68750000  1.0
  C  C133  1  0.23990000  0.65930000  0.81340000  1.0
  C  C134  1  0.66120000  0.24090000  0.18750000  1.0
  C  C135  1  0.73990000  0.15930000  0.31340000  1.0
  N  N136  1  0.65060000  0.15060000  0.25010000  1.0
  N  N137  1  0.34940000  0.84940000  0.25010000  1.0
  N  N138  1  0.84940000  0.65060000  0.25010000  1.0
  N  N139  1  0.15060000  0.34940000  0.25010000  1.0
  N  N140  1  0.65060000  0.84940000  0.75010000  1.0
  N  N141  1  0.34940000  0.15060000  0.24990000  1.0
  N  N142  1  0.65060000  0.84940000  0.24990000  1.0
  N  N143  1  0.15060000  0.65060000  0.24990000  1.0
  N  N144  1  0.84940000  0.34940000  0.24990000  1.0
  N  N145  1  0.34940000  0.84940000  0.74990000  1.0
  N  N146  1  0.65060000  0.15060000  0.74990000  1.0
  N  N147  1  0.15060000  0.34940000  0.74990000  1.0
  N  N148  1  0.84940000  0.65060000  0.74990000  1.0
  N  N149  1  0.34940000  0.15060000  0.75010000  1.0
  N  N150  1  0.84940000  0.34940000  0.75010000  1.0
  N  N151  1  0.15060000  0.65060000  0.75010000  1.0
  O  O152  1  0.50000000  0.00000000  0.12280000  1.0
  O  O153  1  0.00000000  0.50000000  0.12280000  1.0
  O  O154  1  0.50000000  0.00000000  0.62280000  1.0
  O  O155  1  0.50000000  0.00000000  0.37720000  1.0
  O  O156  1  0.00000000  0.50000000  0.37720000  1.0
  O  O157  1  0.50000000  0.00000000  0.87720000  1.0
  O  O158  1  0.00000000  0.50000000  0.87720000  1.0
  O  O159  1  0.00000000  0.50000000  0.62280000  1.0
  F  F160  1  0.69220000  0.00960000  0.00000000  1.0
  F  F161  1  0.19220000  0.50960000  0.50000000  1.0
  F  F162  1  0.30780000  0.99040000  0.00000000  1.0
  F  F163  1  0.80780000  0.49040000  0.50000000  1.0
  F  F164  1  0.99040000  0.69220000  0.00000000  1.0
  F  F165  1  0.49040000  0.19220000  0.50000000  1.0
  F  F166  1  0.00960000  0.30780000  0.00000000  1.0
  F  F167  1  0.50960000  0.80780000  0.50000000  1.0
  F  F168  1  0.30780000  0.00960000  0.50000000  1.0
  F  F169  1  0.80780000  0.50960000  0.00000000  1.0
  F  F170  1  0.69220000  0.99040000  0.50000000  1.0
  F  F171  1  0.19220000  0.49040000  0.00000000  1.0
  F  F172  1  0.00960000  0.69220000  0.50000000  1.0
  F  F173  1  0.50960000  0.19220000  0.00000000  1.0
  F  F174  1  0.99040000  0.30780000  0.50000000  1.0
  F  F175  1  0.49040000  0.80780000  0.00000000  1.0
