# generated using pymatgen
data_Y3H48C66NO29
_symmetry_space_group_name_H-M   'P 1'
_cell_length_a   10.67620000
_cell_length_b   28.24200000
_cell_length_c   34.07900000
_cell_angle_alpha   90.00000000
_cell_angle_beta   90.00000000
_cell_angle_gamma   90.00000000
_symmetry_Int_Tables_number   1
_chemical_formula_structural   Y3H48C66NO29
_chemical_formula_sum   'Y12 H192 C264 N4 O116'
_cell_volume   10275.40603559
_cell_formula_units_Z   4
loop_
 _symmetry_equiv_pos_site_id
 _symmetry_equiv_pos_as_xyz
  1  'x, y, z'
loop_
 _atom_site_type_symbol
 _atom_site_label
 _atom_site_symmetry_multiplicity
 _atom_site_fract_x
 _atom_site_fract_y
 _atom_site_fract_z
 _atom_site_occupancy
  Y  Y0  1  0.94871000  0.19161000  0.25000000  1.0
  Y  Y1  1  0.12830000  0.32601000  0.25000000  1.0
  Y  Y2  1  0.05129000  0.80839000  0.75000000  1.0
  Y  Y3  1  0.87170000  0.67399000  0.75000000  1.0
  Y  Y4  1  0.05129000  0.69161000  0.25000000  1.0
  Y  Y5  1  0.87170000  0.82601000  0.25000000  1.0
  Y  Y6  1  0.94871000  0.30839000  0.75000000  1.0
  Y  Y7  1  0.12830000  0.17399000  0.75000000  1.0
  Y  Y8  1  0.83207000  0.49018000  0.75000000  1.0
  Y  Y9  1  0.16793000  0.50982000  0.25000000  1.0
  Y  Y10  1  0.16793000  0.99018000  0.75000000  1.0
  Y  Y11  1  0.83207000  0.00982000  0.25000000  1.0
  H  H12  1  0.52010000  0.31100000  0.04550000  1.0
  H  H13  1  0.64250000  0.30370000  0.01880000  1.0
  H  H14  1  0.58350000  0.40820000  0.95720000  1.0
  H  H15  1  0.66450000  0.41130000  0.99680000  1.0
  H  H16  1  0.53200000  0.30380000  0.95760000  1.0
  H  H17  1  0.40680000  0.30350000  0.98370000  1.0
  H  H18  1  0.48020000  0.41430000  0.03580000  1.0
  H  H19  1  0.39870000  0.41330000  0.99630000  1.0
  H  H20  1  0.64030000  0.26940000  0.08470000  1.0
  H  H21  1  0.73260000  0.24130000  0.14200000  1.0
  H  H22  1  0.89350000  0.36830000  0.16090000  1.0
  H  H23  1  0.79290000  0.39900000  0.10580000  1.0
  H  H24  1  0.83300000  0.30640000  0.91550000  1.0
  H  H25  1  0.91980000  0.32350000  0.85390000  1.0
  H  H26  1  0.81610000  0.45960000  0.86470000  1.0
  H  H27  1  0.73240000  0.44420000  0.92690000  1.0
  H  H28  1  0.42520000  0.26100000  0.91840000  1.0
  H  H29  1  0.34140000  0.22750000  0.86160000  1.0
  H  H30  1  0.17510000  0.35130000  0.83460000  1.0
  H  H31  1  0.26750000  0.38660000  0.88870000  1.0
  H  H32  1  0.20460000  0.32240000  0.08170000  1.0
  H  H33  1  0.13250000  0.34130000  0.14410000  1.0
  H  H34  1  0.31050000  0.46740000  0.13780000  1.0
  H  H35  1  0.38070000  0.44900000  0.07440000  1.0
  H  H36  1  0.47990000  0.68900000  0.54550000  1.0
  H  H37  1  0.35750000  0.69630000  0.51880000  1.0
  H  H38  1  0.41650000  0.59180000  0.45720000  1.0
  H  H39  1  0.33550000  0.58870000  0.49680000  1.0
  H  H40  1  0.46800000  0.69620000  0.45760000  1.0
  H  H41  1  0.59320000  0.69650000  0.48370000  1.0
  H  H42  1  0.51980000  0.58570000  0.53580000  1.0
  H  H43  1  0.60130000  0.58670000  0.49630000  1.0
  H  H44  1  0.35970000  0.73060000  0.58470000  1.0
  H  H45  1  0.26740000  0.75870000  0.64200000  1.0
  H  H46  1  0.10650000  0.63170000  0.66090000  1.0
  H  H47  1  0.20710000  0.60100000  0.60580000  1.0
  H  H48  1  0.16700000  0.69360000  0.41550000  1.0
  H  H49  1  0.08020000  0.67650000  0.35390000  1.0
  H  H50  1  0.18390000  0.54040000  0.36470000  1.0
  H  H51  1  0.26760000  0.55580000  0.42690000  1.0
  H  H52  1  0.57480000  0.73900000  0.41840000  1.0
  H  H53  1  0.65860000  0.77250000  0.36160000  1.0
  H  H54  1  0.82490000  0.64870000  0.33460000  1.0
  H  H55  1  0.73250000  0.61340000  0.38870000  1.0
  H  H56  1  0.79540000  0.67760000  0.58170000  1.0
  H  H57  1  0.86750000  0.65870000  0.64410000  1.0
  H  H58  1  0.68950000  0.53260000  0.63780000  1.0
  H  H59  1  0.61930000  0.55100000  0.57440000  1.0
  H  H60  1  0.47990000  0.81100000  0.45450000  1.0
  H  H61  1  0.35750000  0.80370000  0.48120000  1.0
  H  H62  1  0.41650000  0.90820000  0.54280000  1.0
  H  H63  1  0.33550000  0.91130000  0.50320000  1.0
  H  H64  1  0.46800000  0.80380000  0.54240000  1.0
  H  H65  1  0.59320000  0.80350000  0.51630000  1.0
  H  H66  1  0.51980000  0.91430000  0.46420000  1.0
  H  H67  1  0.60130000  0.91330000  0.50370000  1.0
  H  H68  1  0.35970000  0.76940000  0.41530000  1.0
  H  H69  1  0.26740000  0.74130000  0.35800000  1.0
  H  H70  1  0.10650000  0.86830000  0.33910000  1.0
  H  H71  1  0.20710000  0.89900000  0.39420000  1.0
  H  H72  1  0.16700000  0.80640000  0.58450000  1.0
  H  H73  1  0.08020000  0.82350000  0.64610000  1.0
  H  H74  1  0.18390000  0.95960000  0.63530000  1.0
  H  H75  1  0.26760000  0.94420000  0.57310000  1.0
  H  H76  1  0.57480000  0.76100000  0.58160000  1.0
  H  H77  1  0.65860000  0.72750000  0.63840000  1.0
  H  H78  1  0.82490000  0.85130000  0.66540000  1.0
  H  H79  1  0.73250000  0.88660000  0.61130000  1.0
  H  H80  1  0.79540000  0.82240000  0.41830000  1.0
  H  H81  1  0.86750000  0.84130000  0.35590000  1.0
  H  H82  1  0.68950000  0.96740000  0.36220000  1.0
  H  H83  1  0.61930000  0.94900000  0.42560000  1.0
  H  H84  1  0.52010000  0.18900000  0.95450000  1.0
  H  H85  1  0.64250000  0.19630000  0.98120000  1.0
  H  H86  1  0.58350000  0.09180000  0.04280000  1.0
  H  H87  1  0.66450000  0.08870000  0.00320000  1.0
  H  H88  1  0.53200000  0.19620000  0.04240000  1.0
  H  H89  1  0.40680000  0.19650000  0.01630000  1.0
  H  H90  1  0.48020000  0.08570000  0.96420000  1.0
  H  H91  1  0.39870000  0.08670000  0.00370000  1.0
  H  H92  1  0.64030000  0.23060000  0.91530000  1.0
  H  H93  1  0.73260000  0.25870000  0.85800000  1.0
  H  H94  1  0.89350000  0.13170000  0.83910000  1.0
  H  H95  1  0.79290000  0.10100000  0.89420000  1.0
  H  H96  1  0.83300000  0.19360000  0.08450000  1.0
  H  H97  1  0.91980000  0.17650000  0.14610000  1.0
  H  H98  1  0.81610000  0.04040000  0.13530000  1.0
  H  H99  1  0.73240000  0.05580000  0.07310000  1.0
  H  H100  1  0.42520000  0.23900000  0.08160000  1.0
  H  H101  1  0.34140000  0.27250000  0.13840000  1.0
  H  H102  1  0.17510000  0.14870000  0.16540000  1.0
  H  H103  1  0.26750000  0.11340000  0.11130000  1.0
  H  H104  1  0.20460000  0.17760000  0.91830000  1.0
  H  H105  1  0.13250000  0.15870000  0.85590000  1.0
  H  H106  1  0.31050000  0.03260000  0.86220000  1.0
  H  H107  1  0.38070000  0.05100000  0.92560000  1.0
  H  H108  1  0.47990000  0.68900000  0.95450000  1.0
  H  H109  1  0.35750000  0.69630000  0.98120000  1.0
  H  H110  1  0.41650000  0.59180000  0.04280000  1.0
  H  H111  1  0.33550000  0.58870000  0.00320000  1.0
  H  H112  1  0.46800000  0.69620000  0.04240000  1.0
  H  H113  1  0.59320000  0.69650000  0.01630000  1.0
  H  H114  1  0.51980000  0.58570000  0.96420000  1.0
  H  H115  1  0.60130000  0.58670000  0.00370000  1.0
  H  H116  1  0.35970000  0.73060000  0.91530000  1.0
  H  H117  1  0.26740000  0.75870000  0.85800000  1.0
  H  H118  1  0.10650000  0.63170000  0.83910000  1.0
  H  H119  1  0.20710000  0.60100000  0.89420000  1.0
  H  H120  1  0.16700000  0.69360000  0.08450000  1.0
  H  H121  1  0.08020000  0.67650000  0.14610000  1.0
  H  H122  1  0.18390000  0.54040000  0.13530000  1.0
  H  H123  1  0.26760000  0.55580000  0.07310000  1.0
  H  H124  1  0.57480000  0.73900000  0.08160000  1.0
  H  H125  1  0.65860000  0.77250000  0.13840000  1.0
  H  H126  1  0.82490000  0.64870000  0.16540000  1.0
  H  H127  1  0.73250000  0.61340000  0.11130000  1.0
  H  H128  1  0.79540000  0.67760000  0.91830000  1.0
  H  H129  1  0.86750000  0.65870000  0.85590000  1.0
  H  H130  1  0.68950000  0.53260000  0.86220000  1.0
  H  H131  1  0.61930000  0.55100000  0.92560000  1.0
  H  H132  1  0.52010000  0.31100000  0.45450000  1.0
  H  H133  1  0.64250000  0.30370000  0.48120000  1.0
  H  H134  1  0.58350000  0.40820000  0.54280000  1.0
  H  H135  1  0.66450000  0.41130000  0.50320000  1.0
  H  H136  1  0.53200000  0.30380000  0.54240000  1.0
  H  H137  1  0.40680000  0.30350000  0.51630000  1.0
  H  H138  1  0.48020000  0.41430000  0.46420000  1.0
  H  H139  1  0.39870000  0.41330000  0.50370000  1.0
  H  H140  1  0.64030000  0.26940000  0.41530000  1.0
  H  H141  1  0.73260000  0.24130000  0.35800000  1.0
  H  H142  1  0.89350000  0.36830000  0.33910000  1.0
  H  H143  1  0.79290000  0.39900000  0.39420000  1.0
  H  H144  1  0.83300000  0.30640000  0.58450000  1.0
  H  H145  1  0.91980000  0.32350000  0.64610000  1.0
  H  H146  1  0.81610000  0.45960000  0.63530000  1.0
  H  H147  1  0.73240000  0.44420000  0.57310000  1.0
  H  H148  1  0.42520000  0.26100000  0.58160000  1.0
  H  H149  1  0.34140000  0.22750000  0.63840000  1.0
  H  H150  1  0.17510000  0.35130000  0.66540000  1.0
  H  H151  1  0.26750000  0.38660000  0.61130000  1.0
  H  H152  1  0.20460000  0.32240000  0.41830000  1.0
  H  H153  1  0.13250000  0.34130000  0.35590000  1.0
  H  H154  1  0.31050000  0.46740000  0.36220000  1.0
  H  H155  1  0.38070000  0.44900000  0.42560000  1.0
  H  H156  1  0.52010000  0.18900000  0.54550000  1.0
  H  H157  1  0.64250000  0.19630000  0.51880000  1.0
  H  H158  1  0.58350000  0.09180000  0.45720000  1.0
  H  H159  1  0.66450000  0.08870000  0.49680000  1.0
  H  H160  1  0.53200000  0.19620000  0.45760000  1.0
  H  H161  1  0.40680000  0.19650000  0.48370000  1.0
  H  H162  1  0.48020000  0.08570000  0.53580000  1.0
  H  H163  1  0.39870000  0.08670000  0.49630000  1.0
  H  H164  1  0.64030000  0.23060000  0.58470000  1.0
  H  H165  1  0.73260000  0.25870000  0.64200000  1.0
  H  H166  1  0.89350000  0.13170000  0.66090000  1.0
  H  H167  1  0.79290000  0.10100000  0.60580000  1.0
  H  H168  1  0.83300000  0.19360000  0.41550000  1.0
  H  H169  1  0.91980000  0.17650000  0.35390000  1.0
  H  H170  1  0.81610000  0.04040000  0.36470000  1.0
  H  H171  1  0.73240000  0.05580000  0.42690000  1.0
  H  H172  1  0.42520000  0.23900000  0.41840000  1.0
  H  H173  1  0.34140000  0.27250000  0.36160000  1.0
  H  H174  1  0.17510000  0.14870000  0.33460000  1.0
  H  H175  1  0.26750000  0.11340000  0.38870000  1.0
  H  H176  1  0.20460000  0.17760000  0.58170000  1.0
  H  H177  1  0.13250000  0.15870000  0.64410000  1.0
  H  H178  1  0.31050000  0.03260000  0.63780000  1.0
  H  H179  1  0.38070000  0.05100000  0.57440000  1.0
  H  H180  1  0.47990000  0.81100000  0.04550000  1.0
  H  H181  1  0.35750000  0.80370000  0.01880000  1.0
  H  H182  1  0.41650000  0.90820000  0.95720000  1.0
  H  H183  1  0.33550000  0.91130000  0.99680000  1.0
  H  H184  1  0.46800000  0.80380000  0.95760000  1.0
  H  H185  1  0.59320000  0.80350000  0.98370000  1.0
  H  H186  1  0.51980000  0.91430000  0.03580000  1.0
  H  H187  1  0.60130000  0.91330000  0.99630000  1.0
  H  H188  1  0.35970000  0.76940000  0.08470000  1.0
  H  H189  1  0.26740000  0.74130000  0.14200000  1.0
  H  H190  1  0.10650000  0.86830000  0.16090000  1.0
  H  H191  1  0.20710000  0.89900000  0.10580000  1.0
  H  H192  1  0.16700000  0.80640000  0.91550000  1.0
  H  H193  1  0.08020000  0.82350000  0.85390000  1.0
  H  H194  1  0.18390000  0.95960000  0.86470000  1.0
  H  H195  1  0.26760000  0.94420000  0.92690000  1.0
  H  H196  1  0.57480000  0.76100000  0.91840000  1.0
  H  H197  1  0.65860000  0.72750000  0.86160000  1.0
  H  H198  1  0.82490000  0.85130000  0.83460000  1.0
  H  H199  1  0.73250000  0.88660000  0.88870000  1.0
  H  H200  1  0.79540000  0.82240000  0.08170000  1.0
  H  H201  1  0.86750000  0.84130000  0.14410000  1.0
  H  H202  1  0.68950000  0.96740000  0.13780000  1.0
  H  H203  1  0.61930000  0.94900000  0.07440000  1.0
  C  C204  1  0.52860000  0.35850000  0.99892000  1.0
  C  C205  1  0.58660000  0.32768000  0.03081000  1.0
  C  C206  1  0.62490000  0.38927000  0.97789000  1.0
  C  C207  1  0.46730000  0.32415000  0.96987000  1.0
  C  C208  1  0.43610000  0.39332000  0.01704000  1.0
  C  C209  1  0.70780000  0.33658000  0.08959000  1.0
  C  C210  1  0.69040000  0.28978000  0.10037000  1.0
  C  C211  1  0.74660000  0.27319000  0.13414000  1.0
  C  C212  1  0.82270000  0.30178000  0.15683000  1.0
  C  C213  1  0.84050000  0.34845000  0.14564000  1.0
  C  C214  1  0.78250000  0.36663000  0.11272000  1.0
  C  C215  1  0.88600000  0.28153000  0.19295000  1.0
  C  C216  1  0.76930000  0.37329000  0.92597000  1.0
  C  C217  1  0.82770000  0.33752000  0.90498000  1.0
  C  C218  1  0.87860000  0.34773000  0.86826000  1.0
  C  C219  1  0.86980000  0.39243000  0.85261000  1.0
  C  C220  1  0.81770000  0.42827000  0.87478000  1.0
  C  C221  1  0.76740000  0.41931000  0.91176000  1.0
  C  C222  1  0.91140000  0.40173000  0.81125000  1.0
  C  C223  1  0.35670000  0.32735000  0.90879000  1.0
  C  C224  1  0.37660000  0.27977000  0.90094000  1.0
  C  C225  1  0.32490000  0.25978000  0.86737000  1.0
  C  C226  1  0.25050000  0.28554000  0.84227000  1.0
  C  C227  1  0.22810000  0.33312000  0.85121000  1.0
  C  C228  1  0.28160000  0.35401000  0.88353000  1.0
  C  C229  1  0.19030000  0.26338000  0.80697000  1.0
  C  C230  1  0.30160000  0.38338000  0.07275000  1.0
  C  C231  1  0.22680000  0.35187000  0.09324000  1.0
  C  C232  1  0.18430000  0.36295000  0.13034000  1.0
  C  C233  1  0.21730000  0.40588000  0.14763000  1.0
  C  C234  1  0.28950000  0.43768000  0.12647000  1.0
  C  C235  1  0.33190000  0.42690000  0.08880000  1.0
  C  C236  1  0.17460000  0.41779000  0.18841000  1.0
  C  C237  1  0.47140000  0.64150000  0.49892000  1.0
  C  C238  1  0.41340000  0.67232000  0.53081000  1.0
  C  C239  1  0.37510000  0.61073000  0.47789000  1.0
  C  C240  1  0.53270000  0.67585000  0.46987000  1.0
  C  C241  1  0.56390000  0.60668000  0.51704000  1.0
  C  C242  1  0.29220000  0.66342000  0.58959000  1.0
  C  C243  1  0.30960000  0.71022000  0.60037000  1.0
  C  C244  1  0.25340000  0.72681000  0.63414000  1.0
  C  C245  1  0.17730000  0.69822000  0.65683000  1.0
  C  C246  1  0.15950000  0.65155000  0.64564000  1.0
  C  C247  1  0.21750000  0.63337000  0.61272000  1.0
  C  C248  1  0.11400000  0.71847000  0.69295000  1.0
  C  C249  1  0.23070000  0.62671000  0.42597000  1.0
  C  C250  1  0.17230000  0.66248000  0.40498000  1.0
  C  C251  1  0.12140000  0.65227000  0.36826000  1.0
  C  C252  1  0.13020000  0.60757000  0.35261000  1.0
  C  C253  1  0.18230000  0.57173000  0.37478000  1.0
  C  C254  1  0.23260000  0.58069000  0.41176000  1.0
  C  C255  1  0.08860000  0.59827000  0.31125000  1.0
  C  C256  1  0.64330000  0.67265000  0.40879000  1.0
  C  C257  1  0.62340000  0.72023000  0.40094000  1.0
  C  C258  1  0.67510000  0.74022000  0.36737000  1.0
  C  C259  1  0.74950000  0.71446000  0.34227000  1.0
  C  C260  1  0.77190000  0.66688000  0.35121000  1.0
  C  C261  1  0.71840000  0.64599000  0.38353000  1.0
  C  C262  1  0.80970000  0.73662000  0.30697000  1.0
  C  C263  1  0.69840000  0.61662000  0.57275000  1.0
  C  C264  1  0.77320000  0.64813000  0.59324000  1.0
  C  C265  1  0.81570000  0.63705000  0.63034000  1.0
  C  C266  1  0.78270000  0.59412000  0.64763000  1.0
  C  C267  1  0.71050000  0.56232000  0.62647000  1.0
  C  C268  1  0.66810000  0.57310000  0.58880000  1.0
  C  C269  1  0.82540000  0.58221000  0.68841000  1.0
  C  C270  1  0.47140000  0.85850000  0.50108000  1.0
  C  C271  1  0.41340000  0.82768000  0.46919000  1.0
  C  C272  1  0.37510000  0.88927000  0.52211000  1.0
  C  C273  1  0.53270000  0.82415000  0.53013000  1.0
  C  C274  1  0.56390000  0.89332000  0.48296000  1.0
  C  C275  1  0.29220000  0.83658000  0.41041000  1.0
  C  C276  1  0.30960000  0.78978000  0.39963000  1.0
  C  C277  1  0.25340000  0.77319000  0.36586000  1.0
  C  C278  1  0.17730000  0.80178000  0.34317000  1.0
  C  C279  1  0.15950000  0.84845000  0.35436000  1.0
  C  C280  1  0.21750000  0.86663000  0.38728000  1.0
  C  C281  1  0.11400000  0.78153000  0.30705000  1.0
  C  C282  1  0.23070000  0.87329000  0.57403000  1.0
  C  C283  1  0.17230000  0.83752000  0.59502000  1.0
  C  C284  1  0.12140000  0.84773000  0.63174000  1.0
  C  C285  1  0.13020000  0.89243000  0.64739000  1.0
  C  C286  1  0.18230000  0.92827000  0.62522000  1.0
  C  C287  1  0.23260000  0.91931000  0.58824000  1.0
  C  C288  1  0.08860000  0.90173000  0.68875000  1.0
  C  C289  1  0.64330000  0.82735000  0.59121000  1.0
  C  C290  1  0.62340000  0.77977000  0.59906000  1.0
  C  C291  1  0.67510000  0.75978000  0.63263000  1.0
  C  C292  1  0.74950000  0.78554000  0.65773000  1.0
  C  C293  1  0.77190000  0.83312000  0.64879000  1.0
  C  C294  1  0.71840000  0.85401000  0.61647000  1.0
  C  C295  1  0.80970000  0.76338000  0.69303000  1.0
  C  C296  1  0.69840000  0.88338000  0.42725000  1.0
  C  C297  1  0.77320000  0.85187000  0.40676000  1.0
  C  C298  1  0.81570000  0.86295000  0.36966000  1.0
  C  C299  1  0.78270000  0.90588000  0.35237000  1.0
  C  C300  1  0.71050000  0.93768000  0.37353000  1.0
  C  C301  1  0.66810000  0.92690000  0.41120000  1.0
  C  C302  1  0.82540000  0.91779000  0.31159000  1.0
  C  C303  1  0.52860000  0.14150000  0.00108000  1.0
  C  C304  1  0.58660000  0.17232000  0.96919000  1.0
  C  C305  1  0.62490000  0.11073000  0.02211000  1.0
  C  C306  1  0.46730000  0.17585000  0.03013000  1.0
  C  C307  1  0.43610000  0.10668000  0.98296000  1.0
  C  C308  1  0.70780000  0.16342000  0.91041000  1.0
  C  C309  1  0.69040000  0.21022000  0.89963000  1.0
  C  C310  1  0.74660000  0.22681000  0.86586000  1.0
  C  C311  1  0.82270000  0.19822000  0.84317000  1.0
  C  C312  1  0.84050000  0.15155000  0.85436000  1.0
  C  C313  1  0.78250000  0.13337000  0.88728000  1.0
  C  C314  1  0.88600000  0.21847000  0.80705000  1.0
  C  C315  1  0.76930000  0.12671000  0.07403000  1.0
  C  C316  1  0.82770000  0.16248000  0.09502000  1.0
  C  C317  1  0.87860000  0.15227000  0.13174000  1.0
  C  C318  1  0.86980000  0.10757000  0.14739000  1.0
  C  C319  1  0.81770000  0.07173000  0.12522000  1.0
  C  C320  1  0.76740000  0.08069000  0.08824000  1.0
  C  C321  1  0.91140000  0.09827000  0.18875000  1.0
  C  C322  1  0.35670000  0.17265000  0.09121000  1.0
  C  C323  1  0.37660000  0.22023000  0.09906000  1.0
  C  C324  1  0.32490000  0.24022000  0.13263000  1.0
  C  C325  1  0.25050000  0.21446000  0.15773000  1.0
  C  C326  1  0.22810000  0.16688000  0.14879000  1.0
  C  C327  1  0.28160000  0.14599000  0.11647000  1.0
  C  C328  1  0.19030000  0.23662000  0.19303000  1.0
  C  C329  1  0.30160000  0.11662000  0.92725000  1.0
  C  C330  1  0.22680000  0.14813000  0.90676000  1.0
  C  C331  1  0.18430000  0.13705000  0.86966000  1.0
  C  C332  1  0.21730000  0.09412000  0.85237000  1.0
  C  C333  1  0.28950000  0.06232000  0.87353000  1.0
  C  C334  1  0.33190000  0.07310000  0.91120000  1.0
  C  C335  1  0.17460000  0.08221000  0.81159000  1.0
  C  C336  1  0.47140000  0.64150000  0.00108000  1.0
  C  C337  1  0.41340000  0.67232000  0.96919000  1.0
  C  C338  1  0.37510000  0.61073000  0.02211000  1.0
  C  C339  1  0.53270000  0.67585000  0.03013000  1.0
  C  C340  1  0.56390000  0.60668000  0.98296000  1.0
  C  C341  1  0.29220000  0.66342000  0.91041000  1.0
  C  C342  1  0.30960000  0.71022000  0.89963000  1.0
  C  C343  1  0.25340000  0.72681000  0.86586000  1.0
  C  C344  1  0.17730000  0.69822000  0.84317000  1.0
  C  C345  1  0.15950000  0.65155000  0.85436000  1.0
  C  C346  1  0.21750000  0.63337000  0.88728000  1.0
  C  C347  1  0.11400000  0.71847000  0.80705000  1.0
  C  C348  1  0.23070000  0.62671000  0.07403000  1.0
  C  C349  1  0.17230000  0.66248000  0.09502000  1.0
  C  C350  1  0.12140000  0.65227000  0.13174000  1.0
  C  C351  1  0.13020000  0.60757000  0.14739000  1.0
  C  C352  1  0.18230000  0.57173000  0.12522000  1.0
  C  C353  1  0.23260000  0.58069000  0.08824000  1.0
  C  C354  1  0.08860000  0.59827000  0.18875000  1.0
  C  C355  1  0.64330000  0.67265000  0.09121000  1.0
  C  C356  1  0.62340000  0.72023000  0.09906000  1.0
  C  C357  1  0.67510000  0.74022000  0.13263000  1.0
  C  C358  1  0.74950000  0.71446000  0.15773000  1.0
  C  C359  1  0.77190000  0.66688000  0.14879000  1.0
  C  C360  1  0.71840000  0.64599000  0.11647000  1.0
  C  C361  1  0.80970000  0.73662000  0.19303000  1.0
  C  C362  1  0.69840000  0.61662000  0.92725000  1.0
  C  C363  1  0.77320000  0.64813000  0.90676000  1.0
  C  C364  1  0.81570000  0.63705000  0.86966000  1.0
  C  C365  1  0.78270000  0.59412000  0.85237000  1.0
  C  C366  1  0.71050000  0.56232000  0.87353000  1.0
  C  C367  1  0.66810000  0.57310000  0.91120000  1.0
  C  C368  1  0.82540000  0.58221000  0.81159000  1.0
  C  C369  1  0.52860000  0.35850000  0.50108000  1.0
  C  C370  1  0.58660000  0.32768000  0.46919000  1.0
  C  C371  1  0.62490000  0.38927000  0.52211000  1.0
  C  C372  1  0.46730000  0.32415000  0.53013000  1.0
  C  C373  1  0.43610000  0.39332000  0.48296000  1.0
  C  C374  1  0.70780000  0.33658000  0.41041000  1.0
  C  C375  1  0.69040000  0.28978000  0.39963000  1.0
  C  C376  1  0.74660000  0.27319000  0.36586000  1.0
  C  C377  1  0.82270000  0.30178000  0.34317000  1.0
  C  C378  1  0.84050000  0.34845000  0.35436000  1.0
  C  C379  1  0.78250000  0.36663000  0.38728000  1.0
  C  C380  1  0.88600000  0.28153000  0.30705000  1.0
  C  C381  1  0.76930000  0.37329000  0.57403000  1.0
  C  C382  1  0.82770000  0.33752000  0.59502000  1.0
  C  C383  1  0.87860000  0.34773000  0.63174000  1.0
  C  C384  1  0.86980000  0.39243000  0.64739000  1.0
  C  C385  1  0.81770000  0.42827000  0.62522000  1.0
  C  C386  1  0.76740000  0.41931000  0.58824000  1.0
  C  C387  1  0.91140000  0.40173000  0.68875000  1.0
  C  C388  1  0.35670000  0.32735000  0.59121000  1.0
  C  C389  1  0.37660000  0.27977000  0.59906000  1.0
  C  C390  1  0.32490000  0.25978000  0.63263000  1.0
  C  C391  1  0.25050000  0.28554000  0.65773000  1.0
  C  C392  1  0.22810000  0.33312000  0.64879000  1.0
  C  C393  1  0.28160000  0.35401000  0.61647000  1.0
  C  C394  1  0.19030000  0.26338000  0.69303000  1.0
  C  C395  1  0.30160000  0.38338000  0.42725000  1.0
  C  C396  1  0.22680000  0.35187000  0.40676000  1.0
  C  C397  1  0.18430000  0.36295000  0.36966000  1.0
  C  C398  1  0.21730000  0.40588000  0.35237000  1.0
  C  C399  1  0.28950000  0.43768000  0.37353000  1.0
  C  C400  1  0.33190000  0.42690000  0.41120000  1.0
  C  C401  1  0.17460000  0.41779000  0.31159000  1.0
  C  C402  1  0.52860000  0.14150000  0.49892000  1.0
  C  C403  1  0.58660000  0.17232000  0.53081000  1.0
  C  C404  1  0.62490000  0.11073000  0.47789000  1.0
  C  C405  1  0.46730000  0.17585000  0.46987000  1.0
  C  C406  1  0.43610000  0.10668000  0.51704000  1.0
  C  C407  1  0.70780000  0.16342000  0.58959000  1.0
  C  C408  1  0.69040000  0.21022000  0.60037000  1.0
  C  C409  1  0.74660000  0.22681000  0.63414000  1.0
  C  C410  1  0.82270000  0.19822000  0.65683000  1.0
  C  C411  1  0.84050000  0.15155000  0.64564000  1.0
  C  C412  1  0.78250000  0.13337000  0.61272000  1.0
  C  C413  1  0.88600000  0.21847000  0.69295000  1.0
  C  C414  1  0.76930000  0.12671000  0.42597000  1.0
  C  C415  1  0.82770000  0.16248000  0.40498000  1.0
  C  C416  1  0.87860000  0.15227000  0.36826000  1.0
  C  C417  1  0.86980000  0.10757000  0.35261000  1.0
  C  C418  1  0.81770000  0.07173000  0.37478000  1.0
  C  C419  1  0.76740000  0.08069000  0.41176000  1.0
  C  C420  1  0.91140000  0.09827000  0.31125000  1.0
  C  C421  1  0.35670000  0.17265000  0.40879000  1.0
  C  C422  1  0.37660000  0.22023000  0.40094000  1.0
  C  C423  1  0.32490000  0.24022000  0.36737000  1.0
  C  C424  1  0.25050000  0.21446000  0.34227000  1.0
  C  C425  1  0.22810000  0.16688000  0.35121000  1.0
  C  C426  1  0.28160000  0.14599000  0.38353000  1.0
  C  C427  1  0.19030000  0.23662000  0.30697000  1.0
  C  C428  1  0.30160000  0.11662000  0.57275000  1.0
  C  C429  1  0.22680000  0.14813000  0.59324000  1.0
  C  C430  1  0.18430000  0.13705000  0.63034000  1.0
  C  C431  1  0.21730000  0.09412000  0.64763000  1.0
  C  C432  1  0.28950000  0.06232000  0.62647000  1.0
  C  C433  1  0.33190000  0.07310000  0.58880000  1.0
  C  C434  1  0.17460000  0.08221000  0.68841000  1.0
  C  C435  1  0.47140000  0.85850000  0.99892000  1.0
  C  C436  1  0.41340000  0.82768000  0.03081000  1.0
  C  C437  1  0.37510000  0.88927000  0.97789000  1.0
  C  C438  1  0.53270000  0.82415000  0.96987000  1.0
  C  C439  1  0.56390000  0.89332000  0.01704000  1.0
  C  C440  1  0.29220000  0.83658000  0.08959000  1.0
  C  C441  1  0.30960000  0.78978000  0.10037000  1.0
  C  C442  1  0.25340000  0.77319000  0.13414000  1.0
  C  C443  1  0.17730000  0.80178000  0.15683000  1.0
  C  C444  1  0.15950000  0.84845000  0.14564000  1.0
  C  C445  1  0.21750000  0.86663000  0.11272000  1.0
  C  C446  1  0.11400000  0.78153000  0.19295000  1.0
  C  C447  1  0.23070000  0.87329000  0.92597000  1.0
  C  C448  1  0.17230000  0.83752000  0.90498000  1.0
  C  C449  1  0.12140000  0.84773000  0.86826000  1.0
  C  C450  1  0.13020000  0.89243000  0.85261000  1.0
  C  C451  1  0.18230000  0.92827000  0.87478000  1.0
  C  C452  1  0.23260000  0.91931000  0.91176000  1.0
  C  C453  1  0.08860000  0.90173000  0.81125000  1.0
  C  C454  1  0.64330000  0.82735000  0.90879000  1.0
  C  C455  1  0.62340000  0.77977000  0.90094000  1.0
  C  C456  1  0.67510000  0.75978000  0.86737000  1.0
  C  C457  1  0.74950000  0.78554000  0.84227000  1.0
  C  C458  1  0.77190000  0.83312000  0.85121000  1.0
  C  C459  1  0.71840000  0.85401000  0.88353000  1.0
  C  C460  1  0.80970000  0.76338000  0.80697000  1.0
  C  C461  1  0.69840000  0.88338000  0.07275000  1.0
  C  C462  1  0.77320000  0.85187000  0.09324000  1.0
  C  C463  1  0.81570000  0.86295000  0.13034000  1.0
  C  C464  1  0.78270000  0.90588000  0.14763000  1.0
  C  C465  1  0.71050000  0.93768000  0.12647000  1.0
  C  C466  1  0.66810000  0.92690000  0.08880000  1.0
  C  C467  1  0.82540000  0.91779000  0.18841000  1.0
  N  N468  1  0.59260000  0.45950000  0.75000000  1.0
  N  N469  1  0.40740000  0.54050000  0.25000000  1.0
  N  N470  1  0.40740000  0.95950000  0.75000000  1.0
  N  N471  1  0.59260000  0.04050000  0.25000000  1.0
  O  O472  1  0.65640000  0.35741000  0.05666000  1.0
  O  O473  1  0.85610000  0.24089000  0.20445000  1.0
  O  O474  1  0.96610000  0.30789000  0.20935000  1.0
  O  O475  1  0.71790000  0.35930000  0.96082000  1.0
  O  O476  1  0.96420000  0.36847000  0.79382000  1.0
  O  O477  1  0.89500000  0.44203000  0.79740000  1.0
  O  O478  1  0.40410000  0.35121000  0.94038000  1.0
  O  O479  1  0.10920000  0.28770000  0.78952000  1.0
  O  O480  1  0.22320000  0.22283000  0.79629000  1.0
  O  O481  1  0.34000000  0.36759000  0.03691000  1.0
  O  O482  1  0.20080000  0.45826000  0.20172000  1.0
  O  O483  1  0.11670000  0.38687000  0.20677000  1.0
  O  O484  1  0.61110000  0.48920000  0.72950000  1.0
  O  O485  1  0.66270000  0.44530000  0.77420000  1.0
  O  O486  1  0.34360000  0.64259000  0.55666000  1.0
  O  O487  1  0.14390000  0.75911000  0.70445000  1.0
  O  O488  1  0.03390000  0.69211000  0.70935000  1.0
  O  O489  1  0.28210000  0.64070000  0.46082000  1.0
  O  O490  1  0.03580000  0.63153000  0.29382000  1.0
  O  O491  1  0.10500000  0.55797000  0.29740000  1.0
  O  O492  1  0.59590000  0.64879000  0.44038000  1.0
  O  O493  1  0.89080000  0.71230000  0.28952000  1.0
  O  O494  1  0.77680000  0.77717000  0.29629000  1.0
  O  O495  1  0.66000000  0.63241000  0.53691000  1.0
  O  O496  1  0.79920000  0.54174000  0.70172000  1.0
  O  O497  1  0.88330000  0.61313000  0.70677000  1.0
  O  O498  1  0.38890000  0.51080000  0.22950000  1.0
  O  O499  1  0.33730000  0.55470000  0.27420000  1.0
  O  O500  1  0.34360000  0.85741000  0.44334000  1.0
  O  O501  1  0.14390000  0.74089000  0.29555000  1.0
  O  O502  1  0.03390000  0.80789000  0.29065000  1.0
  O  O503  1  0.28210000  0.85930000  0.53918000  1.0
  O  O504  1  0.03580000  0.86847000  0.70618000  1.0
  O  O505  1  0.10500000  0.94203000  0.70260000  1.0
  O  O506  1  0.59590000  0.85121000  0.55962000  1.0
  O  O507  1  0.89080000  0.78770000  0.71048000  1.0
  O  O508  1  0.77680000  0.72283000  0.70371000  1.0
  O  O509  1  0.66000000  0.86759000  0.46309000  1.0
  O  O510  1  0.79920000  0.95826000  0.29828000  1.0
  O  O511  1  0.88330000  0.88687000  0.29323000  1.0
  O  O512  1  0.38890000  0.98920000  0.77050000  1.0
  O  O513  1  0.33730000  0.94530000  0.72580000  1.0
  O  O514  1  0.65640000  0.14259000  0.94334000  1.0
  O  O515  1  0.85610000  0.25911000  0.79555000  1.0
  O  O516  1  0.96610000  0.19211000  0.79065000  1.0
  O  O517  1  0.71790000  0.14070000  0.03918000  1.0
  O  O518  1  0.96420000  0.13153000  0.20618000  1.0
  O  O519  1  0.89500000  0.05797000  0.20260000  1.0
  O  O520  1  0.40410000  0.14879000  0.05962000  1.0
  O  O521  1  0.10920000  0.21230000  0.21048000  1.0
  O  O522  1  0.22320000  0.27717000  0.20371000  1.0
  O  O523  1  0.34000000  0.13241000  0.96309000  1.0
  O  O524  1  0.20080000  0.04174000  0.79828000  1.0
  O  O525  1  0.11670000  0.11313000  0.79323000  1.0
  O  O526  1  0.61110000  0.01080000  0.27050000  1.0
  O  O527  1  0.66270000  0.05470000  0.22580000  1.0
  O  O528  1  0.34360000  0.64259000  0.94334000  1.0
  O  O529  1  0.14390000  0.75911000  0.79555000  1.0
  O  O530  1  0.03390000  0.69211000  0.79065000  1.0
  O  O531  1  0.28210000  0.64070000  0.03918000  1.0
  O  O532  1  0.03580000  0.63153000  0.20618000  1.0
  O  O533  1  0.10500000  0.55797000  0.20260000  1.0
  O  O534  1  0.59590000  0.64879000  0.05962000  1.0
  O  O535  1  0.89080000  0.71230000  0.21048000  1.0
  O  O536  1  0.77680000  0.77717000  0.20371000  1.0
  O  O537  1  0.66000000  0.63241000  0.96309000  1.0
  O  O538  1  0.79920000  0.54174000  0.79828000  1.0
  O  O539  1  0.88330000  0.61313000  0.79323000  1.0
  O  O540  1  0.38890000  0.51080000  0.27050000  1.0
  O  O541  1  0.33730000  0.55470000  0.22580000  1.0
  O  O542  1  0.65640000  0.35741000  0.44334000  1.0
  O  O543  1  0.85610000  0.24089000  0.29555000  1.0
  O  O544  1  0.96610000  0.30789000  0.29065000  1.0
  O  O545  1  0.71790000  0.35930000  0.53918000  1.0
  O  O546  1  0.96420000  0.36847000  0.70618000  1.0
  O  O547  1  0.89500000  0.44203000  0.70260000  1.0
  O  O548  1  0.40410000  0.35121000  0.55962000  1.0
  O  O549  1  0.10920000  0.28770000  0.71048000  1.0
  O  O550  1  0.22320000  0.22283000  0.70371000  1.0
  O  O551  1  0.34000000  0.36759000  0.46309000  1.0
  O  O552  1  0.20080000  0.45826000  0.29828000  1.0
  O  O553  1  0.11670000  0.38687000  0.29323000  1.0
  O  O554  1  0.61110000  0.48920000  0.77050000  1.0
  O  O555  1  0.66270000  0.44530000  0.72580000  1.0
  O  O556  1  0.65640000  0.14259000  0.55666000  1.0
  O  O557  1  0.85610000  0.25911000  0.70445000  1.0
  O  O558  1  0.96610000  0.19211000  0.70935000  1.0
  O  O559  1  0.71790000  0.14070000  0.46082000  1.0
  O  O560  1  0.96420000  0.13153000  0.29382000  1.0
  O  O561  1  0.89500000  0.05797000  0.29740000  1.0
  O  O562  1  0.40410000  0.14879000  0.44038000  1.0
  O  O563  1  0.10920000  0.21230000  0.28952000  1.0
  O  O564  1  0.22320000  0.27717000  0.29629000  1.0
  O  O565  1  0.34000000  0.13241000  0.53691000  1.0
  O  O566  1  0.20080000  0.04174000  0.70172000  1.0
  O  O567  1  0.11670000  0.11313000  0.70677000  1.0
  O  O568  1  0.61110000  0.01080000  0.22950000  1.0
  O  O569  1  0.66270000  0.05470000  0.27420000  1.0
  O  O570  1  0.34360000  0.85741000  0.05666000  1.0
  O  O571  1  0.14390000  0.74089000  0.20445000  1.0
  O  O572  1  0.03390000  0.80789000  0.20935000  1.0
  O  O573  1  0.28210000  0.85930000  0.96082000  1.0
  O  O574  1  0.03580000  0.86847000  0.79382000  1.0
  O  O575  1  0.10500000  0.94203000  0.79740000  1.0
  O  O576  1  0.59590000  0.85121000  0.94038000  1.0
  O  O577  1  0.89080000  0.78770000  0.78952000  1.0
  O  O578  1  0.77680000  0.72283000  0.79629000  1.0
  O  O579  1  0.66000000  0.86759000  0.03691000  1.0
  O  O580  1  0.79920000  0.95826000  0.20172000  1.0
  O  O581  1  0.88330000  0.88687000  0.20677000  1.0
  O  O582  1  0.38890000  0.98920000  0.72950000  1.0
  O  O583  1  0.33730000  0.94530000  0.77420000  1.0
  O  O584  1  0.47530000  0.44730000  0.75000000  1.0
  O  O585  1  0.52470000  0.55270000  0.25000000  1.0
  O  O586  1  0.52470000  0.94730000  0.75000000  1.0
  O  O587  1  0.47530000  0.05270000  0.25000000  1.0
