# generated using pymatgen
data_V2P2H6C3(O3F)2
_symmetry_space_group_name_H-M   'P 1'
_cell_length_a   7.56090000
_cell_length_b   14.18900000
_cell_length_c   11.17400000
_cell_angle_alpha   90.00000000
_cell_angle_beta   99.04000000
_cell_angle_gamma   90.00000000
_symmetry_Int_Tables_number   1
_chemical_formula_structural   V2P2H6C3(O3F)2
_chemical_formula_sum   'V8 P8 H24 C12 O24 F8'
_cell_volume   1183.87472058
_cell_formula_units_Z   4
loop_
 _symmetry_equiv_pos_site_id
 _symmetry_equiv_pos_as_xyz
  1  'x, y, z'
loop_
 _atom_site_type_symbol
 _atom_site_label
 _atom_site_symmetry_multiplicity
 _atom_site_fract_x
 _atom_site_fract_y
 _atom_site_fract_z
 _atom_site_occupancy
  V  V0  1  0.08805000  0.20291000  0.82250000  1.0
  V  V1  1  0.44666000  0.26846000  0.71424000  1.0
  V  V2  1  0.41195000  0.70291000  0.67750000  1.0
  V  V3  1  0.05334000  0.76846000  0.78576000  1.0
  V  V4  1  0.91195000  0.79709000  0.17750000  1.0
  V  V5  1  0.55334000  0.73154000  0.28576000  1.0
  V  V6  1  0.58805000  0.29709000  0.32250000  1.0
  V  V7  1  0.94666000  0.23154000  0.21424000  1.0
  P  P8  1  0.78090000  0.19873000  0.58066000  1.0
  P  P9  1  0.72787000  0.80182000  0.55716000  1.0
  P  P10  1  0.71910000  0.69873000  0.91934000  1.0
  P  P11  1  0.77213000  0.30182000  0.94284000  1.0
  P  P12  1  0.21910000  0.80127000  0.41934000  1.0
  P  P13  1  0.27213000  0.19818000  0.44284000  1.0
  P  P14  1  0.28090000  0.30127000  0.08066000  1.0
  P  P15  1  0.22787000  0.69818000  0.05716000  1.0
  H  H16  1  0.66120000  0.08870000  0.44330000  1.0
  H  H17  1  0.87000000  0.08670000  0.45730000  1.0
  H  H18  1  0.61290000  0.92800000  0.44470000  1.0
  H  H19  1  0.81600000  0.91650000  0.43630000  1.0
  H  H20  1  0.89130000  0.99160000  0.62650000  1.0
  H  H21  1  0.68630000  0.00430000  0.63310000  1.0
  H  H22  1  0.83880000  0.58870000  0.05670000  1.0
  H  H23  1  0.63000000  0.58670000  0.04270000  1.0
  H  H24  1  0.88710000  0.42800000  0.05530000  1.0
  H  H25  1  0.68400000  0.41650000  0.06370000  1.0
  H  H26  1  0.60870000  0.49160000  0.87350000  1.0
  H  H27  1  0.81370000  0.50430000  0.86690000  1.0
  H  H28  1  0.33880000  0.91130000  0.55670000  1.0
  H  H29  1  0.13000000  0.91330000  0.54270000  1.0
  H  H30  1  0.38710000  0.07200000  0.55530000  1.0
  H  H31  1  0.18400000  0.08350000  0.56370000  1.0
  H  H32  1  0.10870000  0.00840000  0.37350000  1.0
  H  H33  1  0.31370000  0.99570000  0.36690000  1.0
  H  H34  1  0.16120000  0.41130000  0.94330000  1.0
  H  H35  1  0.37000000  0.41330000  0.95730000  1.0
  H  H36  1  0.11290000  0.57200000  0.94470000  1.0
  H  H37  1  0.31600000  0.58350000  0.93630000  1.0
  H  H38  1  0.39130000  0.50840000  0.12650000  1.0
  H  H39  1  0.18630000  0.49570000  0.13310000  1.0
  C  C40  1  0.77020000  0.08930000  0.50210000  1.0
  C  C41  1  0.72980000  0.91680000  0.49210000  1.0
  C  C42  1  0.77380000  0.00000000  0.57850000  1.0
  C  C43  1  0.72980000  0.58930000  0.99790000  1.0
  C  C44  1  0.77020000  0.41680000  0.00790000  1.0
  C  C45  1  0.72620000  0.50000000  0.92150000  1.0
  C  C46  1  0.22980000  0.91070000  0.49790000  1.0
  C  C47  1  0.27020000  0.08320000  0.50790000  1.0
  C  C48  1  0.22620000  0.00000000  0.42150000  1.0
  C  C49  1  0.27020000  0.41070000  0.00210000  1.0
  C  C50  1  0.22980000  0.58320000  0.99210000  1.0
  C  C51  1  0.27380000  0.50000000  0.07850000  1.0
  O  O52  1  0.63680000  0.19414000  0.66267000  1.0
  O  O53  1  0.96890000  0.21166000  0.65213000  1.0
  O  O54  1  0.58300000  0.79724000  0.63748000  1.0
  O  O55  1  0.74340000  0.27778000  0.48604000  1.0
  O  O56  1  0.91440000  0.78112000  0.62617000  1.0
  O  O57  1  0.68830000  0.73224000  0.45155000  1.0
  O  O58  1  0.86320000  0.69414000  0.83733000  1.0
  O  O59  1  0.53110000  0.71166000  0.84787000  1.0
  O  O60  1  0.91700000  0.29724000  0.86252000  1.0
  O  O61  1  0.75660000  0.77778000  0.01396000  1.0
  O  O62  1  0.58560000  0.28112000  0.87383000  1.0
  O  O63  1  0.81170000  0.23224000  0.04845000  1.0
  O  O64  1  0.36320000  0.80586000  0.33733000  1.0
  O  O65  1  0.03110000  0.78834000  0.34787000  1.0
  O  O66  1  0.41700000  0.20276000  0.36252000  1.0
  O  O67  1  0.25660000  0.72222000  0.51396000  1.0
  O  O68  1  0.08560000  0.21888000  0.37383000  1.0
  O  O69  1  0.31170000  0.26776000  0.54845000  1.0
  O  O70  1  0.13680000  0.30586000  0.16267000  1.0
  O  O71  1  0.46890000  0.28834000  0.15213000  1.0
  O  O72  1  0.08300000  0.70276000  0.13748000  1.0
  O  O73  1  0.24340000  0.22222000  0.98604000  1.0
  O  O74  1  0.41440000  0.71888000  0.12617000  1.0
  O  O75  1  0.18830000  0.76776000  0.95155000  1.0
  F  F76  1  0.31640000  0.15869000  0.76849000  1.0
  F  F77  1  0.24120000  0.32794000  0.76130000  1.0
  F  F78  1  0.18360000  0.65869000  0.73151000  1.0
  F  F79  1  0.25880000  0.82794000  0.73870000  1.0
  F  F80  1  0.68360000  0.84131000  0.23151000  1.0
  F  F81  1  0.75880000  0.67206000  0.23870000  1.0
  F  F82  1  0.81640000  0.34131000  0.26849000  1.0
  F  F83  1  0.74120000  0.17206000  0.26130000  1.0
