# generated using pymatgen
data_PrH5C10O7
_symmetry_space_group_name_H-M   'P 1'
_cell_length_a   6.66270000
_cell_length_b   9.67400000
_cell_length_c   10.71180000
_cell_angle_alpha   116.84400000
_cell_angle_beta   104.87400000
_cell_angle_gamma   90.00000000
_symmetry_Int_Tables_number   1
_chemical_formula_structural   PrH5C10O7
_chemical_formula_sum   'Pr2 H10 C20 O14'
_cell_volume   589.98290529
_cell_formula_units_Z   2
loop_
 _symmetry_equiv_pos_site_id
 _symmetry_equiv_pos_as_xyz
  1  'x, y, z'
loop_
 _atom_site_type_symbol
 _atom_site_label
 _atom_site_symmetry_multiplicity
 _atom_site_fract_x
 _atom_site_fract_y
 _atom_site_fract_z
 _atom_site_occupancy
  Pr  Pr0  1  0.97560000  0.29116000  0.10326000  1.0
  Pr  Pr1  1  0.47560000  0.81210000  0.10326000  1.0
  H  H2  1  0.96320000  0.52250000  0.71700000  1.0
  H  H3  1  0.78420000  0.34670000  0.48800000  1.0
  H  H4  1  0.88820000  0.00730000  0.59380000  1.0
  H  H5  1  0.02340000  0.94970000  0.76140000  1.0
  H  H6  1  0.23590000  0.02310000  0.76340000  1.0
  H  H7  1  0.46320000  0.19450000  0.71700000  1.0
  H  H8  1  0.28420000  0.14130000  0.48800000  1.0
  H  H9  1  0.38820000  0.58650000  0.59380000  1.0
  H  H10  1  0.52340000  0.81170000  0.76140000  1.0
  H  H11  1  0.73590000  0.74030000  0.76340000  1.0
  C  C12  1  0.99510000  0.22010000  0.75900000  1.0
  C  C13  1  0.01530000  0.37270000  0.79740000  1.0
  C  C14  1  0.94230000  0.41730000  0.69280000  1.0
  C  C15  1  0.84200000  0.31420000  0.55740000  1.0
  C  C16  1  0.82480000  0.16250000  0.52180000  1.0
  C  C17  1  0.90050000  0.11330000  0.62040000  1.0
  C  C18  1  0.13940000  0.03350000  0.82020000  1.0
  C  C19  1  0.24700000  0.02620000  0.95560000  1.0
  C  C20  1  0.12310000  0.49460000  0.94480000  1.0
  C  C21  1  0.71930000  0.04370000  0.37380000  1.0
  C  C22  1  0.49510000  0.53890000  0.75900000  1.0
  C  C23  1  0.51530000  0.42470000  0.79740000  1.0
  C  C24  1  0.44230000  0.27550000  0.69280000  1.0
  C  C25  1  0.34200000  0.24320000  0.55740000  1.0
  C  C26  1  0.32480000  0.35930000  0.52180000  1.0
  C  C27  1  0.40050000  0.50710000  0.62040000  1.0
  C  C28  1  0.63940000  0.78670000  0.82020000  1.0
  C  C29  1  0.74700000  0.92940000  0.95560000  1.0
  C  C30  1  0.62310000  0.45020000  0.94480000  1.0
  C  C31  1  0.21930000  0.33010000  0.37380000  1.0
  O  O32  1  0.06610000  0.17880000  0.86200000  1.0
  O  O33  1  0.31790000  0.90930000  0.94060000  1.0
  O  O34  1  0.26030000  0.14350000  0.06840000  1.0
  O  O35  1  0.13460000  0.46520000  0.04660000  1.0
  O  O36  1  0.19430000  0.61470000  0.95840000  1.0
  O  O37  1  0.58300000  0.08220000  0.29820000  1.0
  O  O38  1  0.75730000  0.91330000  0.33160000  1.0
  O  O39  1  0.56610000  0.68320000  0.86200000  1.0
  O  O40  1  0.81790000  0.03130000  0.94060000  1.0
  O  O41  1  0.76030000  0.92490000  0.06840000  1.0
  O  O42  1  0.63460000  0.58140000  0.04660000  1.0
  O  O43  1  0.69430000  0.34370000  0.95840000  1.0
  O  O44  1  0.08300000  0.21600000  0.29820000  1.0
  O  O45  1  0.25730000  0.41830000  0.33160000  1.0
