# generated using pymatgen
data_In12H18C54O49
_symmetry_space_group_name_H-M   'P 1'
_cell_length_a   15.32130000
_cell_length_b   15.32130000
_cell_length_c   32.57100000
_cell_angle_alpha   90.00000000
_cell_angle_beta   90.00000000
_cell_angle_gamma   120.00000000
_symmetry_Int_Tables_number   1
_chemical_formula_structural   In12H18C54O49
_chemical_formula_sum   'In24 H36 C108 O98'
_cell_volume   6621.44776017
_cell_formula_units_Z   2
loop_
 _symmetry_equiv_pos_site_id
 _symmetry_equiv_pos_as_xyz
  1  'x, y, z'
loop_
 _atom_site_type_symbol
 _atom_site_label
 _atom_site_symmetry_multiplicity
 _atom_site_fract_x
 _atom_site_fract_y
 _atom_site_fract_z
 _atom_site_occupancy
  In  In0  1  0.42035000  0.84070000  0.40789000  1.0
  In  In1  1  0.42035000  0.57965000  0.40789000  1.0
  In  In2  1  0.15930000  0.57965000  0.40789000  1.0
  In  In3  1  0.57965000  0.15930000  0.90789000  1.0
  In  In4  1  0.57965000  0.42035000  0.90789000  1.0
  In  In5  1  0.84070000  0.42035000  0.90789000  1.0
  In  In6  1  0.57965000  0.15930000  0.59211000  1.0
  In  In7  1  0.84070000  0.42035000  0.59211000  1.0
  In  In8  1  0.57965000  0.42035000  0.59211000  1.0
  In  In9  1  0.42035000  0.84070000  0.09211000  1.0
  In  In10  1  0.15930000  0.57965000  0.09211000  1.0
  In  In11  1  0.42035000  0.57965000  0.09211000  1.0
  In  In12  1  0.50000000  0.00000000  0.50000000  1.0
  In  In13  1  0.50000000  0.50000000  0.50000000  1.0
  In  In14  1  0.00000000  0.50000000  0.50000000  1.0
  In  In15  1  0.50000000  0.00000000  0.00000000  1.0
  In  In16  1  0.50000000  0.50000000  0.00000000  1.0
  In  In17  1  0.00000000  0.50000000  0.00000000  1.0
  In  In18  1  0.07726000  0.15452000  0.25000000  1.0
  In  In19  1  0.07726000  0.92274000  0.25000000  1.0
  In  In20  1  0.84548000  0.92274000  0.25000000  1.0
  In  In21  1  0.92274000  0.84548000  0.75000000  1.0
  In  In22  1  0.92274000  0.07726000  0.75000000  1.0
  In  In23  1  0.15452000  0.07726000  0.75000000  1.0
  H  H24  1  0.28280000  0.01020000  0.35520000  1.0
  H  H25  1  0.72740000  0.71720000  0.35520000  1.0
  H  H26  1  0.98980000  0.27260000  0.35520000  1.0
  H  H27  1  0.71720000  0.98980000  0.85520000  1.0
  H  H28  1  0.27260000  0.28280000  0.85520000  1.0
  H  H29  1  0.01020000  0.72740000  0.85520000  1.0
  H  H30  1  0.27260000  0.98980000  0.64480000  1.0
  H  H31  1  0.01020000  0.28280000  0.64480000  1.0
  H  H32  1  0.71720000  0.72740000  0.64480000  1.0
  H  H33  1  0.72740000  0.01020000  0.14480000  1.0
  H  H34  1  0.98980000  0.71720000  0.14480000  1.0
  H  H35  1  0.28280000  0.27260000  0.14480000  1.0
  H  H36  1  0.71720000  0.98980000  0.64480000  1.0
  H  H37  1  0.27260000  0.28280000  0.64480000  1.0
  H  H38  1  0.01020000  0.72740000  0.64480000  1.0
  H  H39  1  0.28280000  0.01020000  0.14480000  1.0
  H  H40  1  0.72740000  0.71720000  0.14480000  1.0
  H  H41  1  0.98980000  0.27260000  0.14480000  1.0
  H  H42  1  0.72740000  0.01020000  0.35520000  1.0
  H  H43  1  0.98980000  0.71720000  0.35520000  1.0
  H  H44  1  0.28280000  0.27260000  0.35520000  1.0
  H  H45  1  0.27260000  0.98980000  0.85520000  1.0
  H  H46  1  0.01020000  0.28280000  0.85520000  1.0
  H  H47  1  0.71720000  0.72740000  0.85520000  1.0
  H  H48  1  0.42460000  0.21230000  0.44560000  1.0
  H  H49  1  0.78770000  0.57540000  0.44560000  1.0
  H  H50  1  0.78770000  0.21230000  0.44560000  1.0
  H  H51  1  0.57540000  0.78770000  0.94560000  1.0
  H  H52  1  0.21230000  0.42460000  0.94560000  1.0
  H  H53  1  0.21230000  0.78770000  0.94560000  1.0
  H  H54  1  0.21230000  0.78770000  0.55440000  1.0
  H  H55  1  0.21230000  0.42460000  0.55440000  1.0
  H  H56  1  0.57540000  0.78770000  0.55440000  1.0
  H  H57  1  0.78770000  0.21230000  0.05440000  1.0
  H  H58  1  0.78770000  0.57540000  0.05440000  1.0
  H  H59  1  0.42460000  0.21230000  0.05440000  1.0
  C  C60  1  0.39110000  0.03180000  0.42270000  1.0
  C  C61  1  0.35880000  0.09940000  0.40310000  1.0
  C  C62  1  0.30200000  0.07210000  0.36730000  1.0
  C  C63  1  0.64070000  0.60890000  0.42270000  1.0
  C  C64  1  0.74060000  0.64120000  0.40310000  1.0
  C  C65  1  0.77010000  0.69800000  0.36730000  1.0
  C  C66  1  0.96820000  0.35930000  0.42270000  1.0
  C  C67  1  0.90060000  0.25940000  0.40310000  1.0
  C  C68  1  0.92790000  0.22990000  0.36730000  1.0
  C  C69  1  0.60890000  0.96820000  0.92270000  1.0
  C  C70  1  0.64120000  0.90060000  0.90310000  1.0
  C  C71  1  0.69800000  0.92790000  0.86730000  1.0
  C  C72  1  0.35930000  0.39110000  0.92270000  1.0
  C  C73  1  0.25940000  0.35880000  0.90310000  1.0
  C  C74  1  0.22990000  0.30200000  0.86730000  1.0
  C  C75  1  0.03180000  0.64070000  0.92270000  1.0
  C  C76  1  0.09940000  0.74060000  0.90310000  1.0
  C  C77  1  0.07210000  0.77010000  0.86730000  1.0
  C  C78  1  0.35930000  0.96820000  0.57730000  1.0
  C  C79  1  0.25940000  0.90060000  0.59690000  1.0
  C  C80  1  0.22990000  0.92790000  0.63270000  1.0
  C  C81  1  0.03180000  0.39110000  0.57730000  1.0
  C  C82  1  0.09940000  0.35880000  0.59690000  1.0
  C  C83  1  0.07210000  0.30200000  0.63270000  1.0
  C  C84  1  0.60890000  0.64070000  0.57730000  1.0
  C  C85  1  0.64120000  0.74060000  0.59690000  1.0
  C  C86  1  0.69800000  0.77010000  0.63270000  1.0
  C  C87  1  0.64070000  0.03180000  0.07730000  1.0
  C  C88  1  0.74060000  0.09940000  0.09690000  1.0
  C  C89  1  0.77010000  0.07210000  0.13270000  1.0
  C  C90  1  0.96820000  0.60890000  0.07730000  1.0
  C  C91  1  0.90060000  0.64120000  0.09690000  1.0
  C  C92  1  0.92790000  0.69800000  0.13270000  1.0
  C  C93  1  0.39110000  0.35930000  0.07730000  1.0
  C  C94  1  0.35880000  0.25940000  0.09690000  1.0
  C  C95  1  0.30200000  0.22990000  0.13270000  1.0
  C  C96  1  0.60890000  0.96820000  0.57730000  1.0
  C  C97  1  0.64120000  0.90060000  0.59690000  1.0
  C  C98  1  0.69800000  0.92790000  0.63270000  1.0
  C  C99  1  0.35930000  0.39110000  0.57730000  1.0
  C  C100  1  0.25940000  0.35880000  0.59690000  1.0
  C  C101  1  0.22990000  0.30200000  0.63270000  1.0
  C  C102  1  0.03180000  0.64070000  0.57730000  1.0
  C  C103  1  0.09940000  0.74060000  0.59690000  1.0
  C  C104  1  0.07210000  0.77010000  0.63270000  1.0
  C  C105  1  0.39110000  0.03180000  0.07730000  1.0
  C  C106  1  0.35880000  0.09940000  0.09690000  1.0
  C  C107  1  0.30200000  0.07210000  0.13270000  1.0
  C  C108  1  0.64070000  0.60890000  0.07730000  1.0
  C  C109  1  0.74060000  0.64120000  0.09690000  1.0
  C  C110  1  0.77010000  0.69800000  0.13270000  1.0
  C  C111  1  0.96820000  0.35930000  0.07730000  1.0
  C  C112  1  0.90060000  0.25940000  0.09690000  1.0
  C  C113  1  0.92790000  0.22990000  0.13270000  1.0
  C  C114  1  0.64070000  0.03180000  0.42270000  1.0
  C  C115  1  0.74060000  0.09940000  0.40310000  1.0
  C  C116  1  0.77010000  0.07210000  0.36730000  1.0
  C  C117  1  0.96820000  0.60890000  0.42270000  1.0
  C  C118  1  0.90060000  0.64120000  0.40310000  1.0
  C  C119  1  0.92790000  0.69800000  0.36730000  1.0
  C  C120  1  0.39110000  0.35930000  0.42270000  1.0
  C  C121  1  0.35880000  0.25940000  0.40310000  1.0
  C  C122  1  0.30200000  0.22990000  0.36730000  1.0
  C  C123  1  0.35930000  0.96820000  0.92270000  1.0
  C  C124  1  0.25940000  0.90060000  0.90310000  1.0
  C  C125  1  0.22990000  0.92790000  0.86730000  1.0
  C  C126  1  0.03180000  0.39110000  0.92270000  1.0
  C  C127  1  0.09940000  0.35880000  0.90310000  1.0
  C  C128  1  0.07210000  0.30200000  0.86730000  1.0
  C  C129  1  0.60890000  0.64070000  0.92270000  1.0
  C  C130  1  0.64120000  0.74060000  0.90310000  1.0
  C  C131  1  0.69800000  0.77010000  0.86730000  1.0
  C  C132  1  0.20640000  0.10320000  0.31120000  1.0
  C  C133  1  0.27360000  0.13680000  0.34940000  1.0
  C  C134  1  0.38720000  0.19360000  0.42150000  1.0
  C  C135  1  0.89680000  0.79360000  0.31120000  1.0
  C  C136  1  0.86320000  0.72640000  0.34940000  1.0
  C  C137  1  0.80640000  0.61280000  0.42150000  1.0
  C  C138  1  0.89680000  0.10320000  0.31120000  1.0
  C  C139  1  0.86320000  0.13680000  0.34940000  1.0
  C  C140  1  0.80640000  0.19360000  0.42150000  1.0
  C  C141  1  0.79360000  0.89680000  0.81120000  1.0
  C  C142  1  0.72640000  0.86320000  0.84940000  1.0
  C  C143  1  0.61280000  0.80640000  0.92150000  1.0
  C  C144  1  0.10320000  0.20640000  0.81120000  1.0
  C  C145  1  0.13680000  0.27360000  0.84940000  1.0
  C  C146  1  0.19360000  0.38720000  0.92150000  1.0
  C  C147  1  0.10320000  0.89680000  0.81120000  1.0
  C  C148  1  0.13680000  0.86320000  0.84940000  1.0
  C  C149  1  0.19360000  0.80640000  0.92150000  1.0
  C  C150  1  0.10320000  0.89680000  0.68880000  1.0
  C  C151  1  0.13680000  0.86320000  0.65060000  1.0
  C  C152  1  0.19360000  0.80640000  0.57850000  1.0
  C  C153  1  0.10320000  0.20640000  0.68880000  1.0
  C  C154  1  0.13680000  0.27360000  0.65060000  1.0
  C  C155  1  0.19360000  0.38720000  0.57850000  1.0
  C  C156  1  0.79360000  0.89680000  0.68880000  1.0
  C  C157  1  0.72640000  0.86320000  0.65060000  1.0
  C  C158  1  0.61280000  0.80640000  0.57850000  1.0
  C  C159  1  0.89680000  0.10320000  0.18880000  1.0
  C  C160  1  0.86320000  0.13680000  0.15060000  1.0
  C  C161  1  0.80640000  0.19360000  0.07850000  1.0
  C  C162  1  0.89680000  0.79360000  0.18880000  1.0
  C  C163  1  0.86320000  0.72640000  0.15060000  1.0
  C  C164  1  0.80640000  0.61280000  0.07850000  1.0
  C  C165  1  0.20640000  0.10320000  0.18880000  1.0
  C  C166  1  0.27360000  0.13680000  0.15060000  1.0
  C  C167  1  0.38720000  0.19360000  0.07850000  1.0
  O  O168  1  0.18310000  0.16500000  0.29715000  1.0
  O  O169  1  0.37990000  0.95830000  0.40149000  1.0
  O  O170  1  0.42770000  0.05410000  0.45822000  1.0
  O  O171  1  0.98190000  0.81690000  0.29715000  1.0
  O  O172  1  0.57840000  0.62010000  0.40149000  1.0
  O  O173  1  0.62640000  0.57230000  0.45822000  1.0
  O  O174  1  0.83500000  0.01810000  0.29715000  1.0
  O  O175  1  0.04170000  0.42160000  0.40149000  1.0
  O  O176  1  0.94590000  0.37360000  0.45822000  1.0
  O  O177  1  0.81690000  0.83500000  0.79715000  1.0
  O  O178  1  0.62010000  0.04170000  0.90149000  1.0
  O  O179  1  0.57230000  0.94590000  0.95822000  1.0
  O  O180  1  0.01810000  0.18310000  0.79715000  1.0
  O  O181  1  0.42160000  0.37990000  0.90149000  1.0
  O  O182  1  0.37360000  0.42770000  0.95822000  1.0
  O  O183  1  0.16500000  0.98190000  0.79715000  1.0
  O  O184  1  0.95830000  0.57840000  0.90149000  1.0
  O  O185  1  0.05410000  0.62640000  0.95822000  1.0
  O  O186  1  0.01810000  0.83500000  0.70285000  1.0
  O  O187  1  0.42160000  0.04170000  0.59851000  1.0
  O  O188  1  0.37360000  0.94590000  0.54178000  1.0
  O  O189  1  0.16500000  0.18310000  0.70285000  1.0
  O  O190  1  0.95830000  0.37990000  0.59851000  1.0
  O  O191  1  0.05410000  0.42770000  0.54178000  1.0
  O  O192  1  0.81690000  0.98190000  0.70285000  1.0
  O  O193  1  0.62010000  0.57840000  0.59851000  1.0
  O  O194  1  0.57230000  0.62640000  0.54178000  1.0
  O  O195  1  0.98190000  0.16500000  0.20285000  1.0
  O  O196  1  0.57840000  0.95830000  0.09851000  1.0
  O  O197  1  0.62640000  0.05410000  0.04178000  1.0
  O  O198  1  0.83500000  0.81690000  0.20285000  1.0
  O  O199  1  0.04170000  0.62010000  0.09851000  1.0
  O  O200  1  0.94590000  0.57230000  0.04178000  1.0
  O  O201  1  0.18310000  0.01810000  0.20285000  1.0
  O  O202  1  0.37990000  0.42160000  0.09851000  1.0
  O  O203  1  0.42770000  0.37360000  0.04178000  1.0
  O  O204  1  0.81690000  0.83500000  0.70285000  1.0
  O  O205  1  0.62010000  0.04170000  0.59851000  1.0
  O  O206  1  0.57230000  0.94590000  0.54178000  1.0
  O  O207  1  0.01810000  0.18310000  0.70285000  1.0
  O  O208  1  0.42160000  0.37990000  0.59851000  1.0
  O  O209  1  0.37360000  0.42770000  0.54178000  1.0
  O  O210  1  0.16500000  0.98190000  0.70285000  1.0
  O  O211  1  0.95830000  0.57840000  0.59851000  1.0
  O  O212  1  0.05410000  0.62640000  0.54178000  1.0
  O  O213  1  0.18310000  0.16500000  0.20285000  1.0
  O  O214  1  0.37990000  0.95830000  0.09851000  1.0
  O  O215  1  0.42770000  0.05410000  0.04178000  1.0
  O  O216  1  0.98190000  0.81690000  0.20285000  1.0
  O  O217  1  0.57840000  0.62010000  0.09851000  1.0
  O  O218  1  0.62640000  0.57230000  0.04178000  1.0
  O  O219  1  0.83500000  0.01810000  0.20285000  1.0
  O  O220  1  0.04170000  0.42160000  0.09851000  1.0
  O  O221  1  0.94590000  0.37360000  0.04178000  1.0
  O  O222  1  0.98190000  0.16500000  0.29715000  1.0
  O  O223  1  0.57840000  0.95830000  0.40149000  1.0
  O  O224  1  0.62640000  0.05410000  0.45822000  1.0
  O  O225  1  0.83500000  0.81690000  0.29715000  1.0
  O  O226  1  0.04170000  0.62010000  0.40149000  1.0
  O  O227  1  0.94590000  0.57230000  0.45822000  1.0
  O  O228  1  0.18310000  0.01810000  0.29715000  1.0
  O  O229  1  0.37990000  0.42160000  0.40149000  1.0
  O  O230  1  0.42770000  0.37360000  0.45822000  1.0
  O  O231  1  0.01810000  0.83500000  0.79715000  1.0
  O  O232  1  0.42160000  0.04170000  0.90149000  1.0
  O  O233  1  0.37360000  0.94590000  0.95822000  1.0
  O  O234  1  0.16500000  0.18310000  0.79715000  1.0
  O  O235  1  0.95830000  0.37990000  0.90149000  1.0
  O  O236  1  0.05410000  0.42770000  0.95822000  1.0
  O  O237  1  0.81690000  0.98190000  0.79715000  1.0
  O  O238  1  0.62010000  0.57840000  0.90149000  1.0
  O  O239  1  0.57230000  0.62640000  0.95822000  1.0
  O  O240  1  0.42870000  0.85740000  0.47270000  1.0
  O  O241  1  0.42870000  0.57130000  0.47270000  1.0
  O  O242  1  0.14260000  0.57130000  0.47270000  1.0
  O  O243  1  0.57130000  0.14260000  0.97270000  1.0
  O  O244  1  0.57130000  0.42870000  0.97270000  1.0
  O  O245  1  0.85740000  0.42870000  0.97270000  1.0
  O  O246  1  0.57130000  0.14260000  0.52730000  1.0
  O  O247  1  0.85740000  0.42870000  0.52730000  1.0
  O  O248  1  0.57130000  0.42870000  0.52730000  1.0
  O  O249  1  0.42870000  0.85740000  0.02730000  1.0
  O  O250  1  0.14260000  0.57130000  0.02730000  1.0
  O  O251  1  0.42870000  0.57130000  0.02730000  1.0
  O  O252  1  0.00000000  0.00000000  0.25000000  1.0
  O  O253  1  0.00000000  0.00000000  0.75000000  1.0
  O  O254  1  0.47110000  0.73555000  0.40620000  1.0
  O  O255  1  0.26445000  0.52890000  0.40620000  1.0
  O  O256  1  0.26445000  0.73555000  0.40620000  1.0
  O  O257  1  0.52890000  0.26445000  0.90620000  1.0
  O  O258  1  0.73555000  0.47110000  0.90620000  1.0
  O  O259  1  0.73555000  0.26445000  0.90620000  1.0
  O  O260  1  0.73555000  0.26445000  0.59380000  1.0
  O  O261  1  0.73555000  0.47110000  0.59380000  1.0
  O  O262  1  0.52890000  0.26445000  0.59380000  1.0
  O  O263  1  0.26445000  0.73555000  0.09380000  1.0
  O  O264  1  0.26445000  0.52890000  0.09380000  1.0
  O  O265  1  0.47110000  0.73555000  0.09380000  1.0
