# generated using pymatgen
data_CeH9C21(SO2)3
_symmetry_space_group_name_H-M   'P 1'
_cell_length_a   8.17200000
_cell_length_b   14.19690000
_cell_length_c   14.19690000
_cell_angle_alpha   110.24100000
_cell_angle_beta   91.04760000
_cell_angle_gamma   88.95240000
_symmetry_Int_Tables_number   1
_chemical_formula_structural   CeH9C21(SO2)3
_chemical_formula_sum   'Ce2 H18 C42 S6 O12'
_cell_volume   1544.98440604
_cell_formula_units_Z   2
loop_
 _symmetry_equiv_pos_site_id
 _symmetry_equiv_pos_as_xyz
  1  'x, y, z'
loop_
 _atom_site_type_symbol
 _atom_site_label
 _atom_site_symmetry_multiplicity
 _atom_site_fract_x
 _atom_site_fract_y
 _atom_site_fract_z
 _atom_site_occupancy
  Ce  Ce0  1  0.39888000  0.91447000  0.05243000  1.0
  Ce  Ce1  1  0.89888000  0.94757000  0.08553000  1.0
  H  H2  1  0.90260000  0.29930000  0.86690000  1.0
  H  H3  1  0.97250000  0.10490000  0.58530000  1.0
  H  H4  1  0.12290000  0.39140000  0.66040000  1.0
  H  H5  1  0.94070000  0.65000000  0.04720000  1.0
  H  H6  1  0.87450000  0.47180000  0.96200000  1.0
  H  H7  1  0.61780000  0.91220000  0.70020000  1.0
  H  H8  1  0.77020000  0.00850000  0.61670000  1.0
  H  H9  1  0.35080000  0.26600000  0.34120000  1.0
  H  H10  1  0.27070000  0.34410000  0.51750000  1.0
  H  H11  1  0.40260000  0.13310000  0.70070000  1.0
  H  H12  1  0.47250000  0.41470000  0.89510000  1.0
  H  H13  1  0.62290000  0.33960000  0.60860000  1.0
  H  H14  1  0.44070000  0.95280000  0.35000000  1.0
  H  H15  1  0.37450000  0.03800000  0.52820000  1.0
  H  H16  1  0.11780000  0.29980000  0.08780000  1.0
  H  H17  1  0.27020000  0.38330000  0.99150000  1.0
  H  H18  1  0.85080000  0.65880000  0.73400000  1.0
  H  H19  1  0.77070000  0.48250000  0.65590000  1.0
  C  C20  1  0.01740000  0.36180000  0.77620000  1.0
  C  C21  1  0.94120000  0.28570000  0.80070000  1.0
  C  C22  1  0.92120000  0.18990000  0.72870000  1.0
  C  C23  1  0.98240000  0.17060000  0.63340000  1.0
  C  C24  1  0.05780000  0.24380000  0.60580000  1.0
  C  C25  1  0.07330000  0.34000000  0.67820000  1.0
  C  C26  1  0.03360000  0.46420000  0.85120000  1.0
  C  C27  1  0.10170000  0.64130000  0.93570000  1.0
  C  C28  1  0.98870000  0.60880000  0.98600000  1.0
  C  C29  1  0.95070000  0.50690000  0.93710000  1.0
  C  C30  1  0.17360000  0.74450000  0.96390000  1.0
  C  C31  1  0.83480000  0.11270000  0.75430000  1.0
  C  C32  1  0.68690000  0.01310000  0.83950000  1.0
  C  C33  1  0.67640000  0.97150000  0.73530000  1.0
  C  C34  1  0.76260000  0.02750000  0.68750000  1.0
  C  C35  1  0.60980000  0.97760000  0.91200000  1.0
  C  C36  1  0.12710000  0.22290000  0.50450000  1.0
  C  C37  1  0.20470000  0.14580000  0.32840000  1.0
  C  C38  1  0.27770000  0.23650000  0.37390000  1.0
  C  C39  1  0.23240000  0.28080000  0.47460000  1.0
  C  C40  1  0.24110000  0.07490000  0.22630000  1.0
  C  C41  1  0.51740000  0.22380000  0.63820000  1.0
  C  C42  1  0.44120000  0.19930000  0.71430000  1.0
  C  C43  1  0.42120000  0.27130000  0.81010000  1.0
  C  C44  1  0.48240000  0.36660000  0.82940000  1.0
  C  C45  1  0.55780000  0.39420000  0.75620000  1.0
  C  C46  1  0.57330000  0.32180000  0.66000000  1.0
  C  C47  1  0.53360000  0.14880000  0.53580000  1.0
  C  C48  1  0.60170000  0.06430000  0.35870000  1.0
  C  C49  1  0.48870000  0.01400000  0.39120000  1.0
  C  C50  1  0.45070000  0.06290000  0.49310000  1.0
  C  C51  1  0.67360000  0.03610000  0.25550000  1.0
  C  C52  1  0.33480000  0.24570000  0.88730000  1.0
  C  C53  1  0.18690000  0.16050000  0.98690000  1.0
  C  C54  1  0.17640000  0.26470000  0.02850000  1.0
  C  C55  1  0.26260000  0.31250000  0.97250000  1.0
  C  C56  1  0.10980000  0.08800000  0.02240000  1.0
  C  C57  1  0.62710000  0.49550000  0.77710000  1.0
  C  C58  1  0.70470000  0.67160000  0.85420000  1.0
  C  C59  1  0.77770000  0.62610000  0.76350000  1.0
  C  C60  1  0.73240000  0.52540000  0.71920000  1.0
  C  C61  1  0.74110000  0.77370000  0.92510000  1.0
  S  S62  1  0.16620000  0.54799000  0.82973000  1.0
  S  S63  1  0.80310000  0.12046000  0.87600000  1.0
  S  S64  1  0.08030000  0.11470000  0.40704000  1.0
  S  S65  1  0.66620000  0.17027000  0.45201000  1.0
  S  S66  1  0.30310000  0.12400000  0.87954000  1.0
  S  S67  1  0.58030000  0.59296000  0.88530000  1.0
  O  O68  1  0.11040000  0.81460000  0.03640000  1.0
  O  O69  1  0.29580000  0.75860000  0.91820000  1.0
  O  O70  1  0.49540000  0.91580000  0.88480000  1.0
  O  O71  1  0.65820000  0.01170000  0.00530000  1.0
  O  O72  1  0.34940000  0.09480000  0.17400000  1.0
  O  O73  1  0.16390000  0.99090000  0.19270000  1.0
  O  O74  1  0.61040000  0.96360000  0.18540000  1.0
  O  O75  1  0.79580000  0.08180000  0.24140000  1.0
  O  O76  1  0.99540000  0.11520000  0.08420000  1.0
  O  O77  1  0.15820000  0.99470000  0.98830000  1.0
  O  O78  1  0.84940000  0.82600000  0.90520000  1.0
  O  O79  1  0.66390000  0.80730000  0.00910000  1.0
