# generated using pymatgen
data_Ce2Cu5Si2H36W22C44(N10O33)2
_symmetry_space_group_name_H-M   'P 1'
_cell_length_a   11.32200000
_cell_length_b   12.13900000
_cell_length_c   23.31100000
_cell_angle_alpha   83.58600000
_cell_angle_beta   81.75300000
_cell_angle_gamma   71.16900000
_symmetry_Int_Tables_number   1
_chemical_formula_structural   Ce2Cu5Si2H36W22C44(N10O33)2
_chemical_formula_sum   'Ce2 Cu5 Si2 H36 W22 C44 N20 O66'
_cell_volume   2993.64278703
_cell_formula_units_Z   1
loop_
 _symmetry_equiv_pos_site_id
 _symmetry_equiv_pos_as_xyz
  1  'x, y, z'
loop_
 _atom_site_type_symbol
 _atom_site_label
 _atom_site_symmetry_multiplicity
 _atom_site_fract_x
 _atom_site_fract_y
 _atom_site_fract_z
 _atom_site_occupancy
  Ce  Ce0  1  0.25618000  0.23642000  0.75883000  1.0
  Ce  Ce1  1  0.74382000  0.76358000  0.24117000  1.0
  Cu  Cu2  1  0.69190000  0.63030000  0.47217000  1.0
  Cu  Cu3  1  0.89232000  0.25578000  0.24516000  1.0
  Cu  Cu4  1  0.10768000  0.74422000  0.75484000  1.0
  Cu  Cu5  1  0.30810000  0.36970000  0.52783000  1.0
  Cu  Cu6  1  0.50000000  0.00000000  0.00000000  1.0
  Si  Si7  1  0.86930000  0.28670000  0.73760000  1.0
  Si  Si8  1  0.13070000  0.71330000  0.26240000  1.0
  H  H9  1  0.25310000  0.11070000  0.38820000  1.0
  H  H10  1  0.24860000  0.89550000  0.48290000  1.0
  H  H11  1  0.24960000  0.96610000  0.96360000  1.0
  H  H12  1  0.91470000  0.17050000  0.00880000  1.0
  H  H13  1  0.67840000  0.78650000  0.06830000  1.0
  H  H14  1  0.06120000  0.36850000  0.48520000  1.0
  H  H15  1  0.74690000  0.88930000  0.61180000  1.0
  H  H16  1  0.08530000  0.82950000  0.99120000  1.0
  H  H17  1  0.92650000  0.76080000  0.67260000  1.0
  H  H18  1  0.27970000  0.75320000  0.83520000  1.0
  H  H19  1  0.58900000  0.73850000  0.95120000  1.0
  H  H20  1  0.32160000  0.21350000  0.93170000  1.0
  H  H21  1  0.90450000  0.70820000  0.04220000  1.0
  H  H22  1  0.07350000  0.23920000  0.32740000  1.0
  H  H23  1  0.28330000  0.73940000  0.64800000  1.0
  H  H24  1  0.72030000  0.24680000  0.16480000  1.0
  H  H25  1  0.92570000  0.77060000  0.86050000  1.0
  H  H26  1  0.09550000  0.29180000  0.95780000  1.0
  H  H27  1  0.53190000  0.16130000  0.57010000  1.0
  H  H28  1  0.53880000  0.38650000  0.43560000  1.0
  H  H29  1  0.75300000  0.93920000  0.91670000  1.0
  H  H30  1  0.41100000  0.26150000  0.04880000  1.0
  H  H31  1  0.93880000  0.63150000  0.51480000  1.0
  H  H32  1  0.07430000  0.22940000  0.13950000  1.0
  H  H33  1  0.10830000  0.74190000  0.51190000  1.0
  H  H34  1  0.45030000  0.64930000  0.91800000  1.0
  H  H35  1  0.46810000  0.83870000  0.42990000  1.0
  H  H36  1  0.60320000  0.84400000  0.55660000  1.0
  H  H37  1  0.54970000  0.35070000  0.08200000  1.0
  H  H38  1  0.46120000  0.61350000  0.56440000  1.0
  H  H39  1  0.24700000  0.06080000  0.08330000  1.0
  H  H40  1  0.75040000  0.03390000  0.03640000  1.0
  H  H41  1  0.75140000  0.10450000  0.51710000  1.0
  H  H42  1  0.71670000  0.26060000  0.35200000  1.0
  H  H43  1  0.39680000  0.15600000  0.44340000  1.0
  H  H44  1  0.89170000  0.25810000  0.48810000  1.0
  W  W45  1  0.64737000  0.56704000  0.73114000  1.0
  W  W46  1  0.03331000  0.87031000  0.38876000  1.0
  W  W47  1  0.44112000  0.66786000  0.28220000  1.0
  W  W48  1  0.78520000  0.03353000  0.71901000  1.0
  W  W49  1  0.91485000  0.98821000  0.26460000  1.0
  W  W50  1  0.93043000  0.61678000  0.36715000  1.0
  W  W51  1  0.31911000  0.81499000  0.14462000  1.0
  W  W52  1  0.26055000  0.57560000  0.39177000  1.0
  W  W53  1  0.06957000  0.38322000  0.63285000  1.0
  W  W54  1  0.98660000  0.15815000  0.86862000  1.0
  W  W55  1  0.76303000  0.42092000  0.86939000  1.0
  W  W56  1  0.35263000  0.43296000  0.26886000  1.0
  W  W57  1  0.68089000  0.18501000  0.85538000  1.0
  W  W58  1  0.21480000  0.96647000  0.28099000  1.0
  W  W59  1  0.01865000  0.48595000  0.24556000  1.0
  W  W60  1  0.23697000  0.57908000  0.13061000  1.0
  W  W61  1  0.55888000  0.33214000  0.71780000  1.0
  W  W62  1  0.73945000  0.42440000  0.60823000  1.0
  W  W63  1  0.08515000  0.01179000  0.73540000  1.0
  W  W64  1  0.96669000  0.12969000  0.61124000  1.0
  W  W65  1  0.98135000  0.51405000  0.75444000  1.0
  W  W66  1  0.01340000  0.84185000  0.13138000  1.0
  C  C67  1  0.99650000  0.77570000  0.87460000  1.0
  C  C68  1  0.78990000  0.25650000  0.36700000  1.0
  C  C69  1  0.31100000  0.19400000  0.44510000  1.0
  C  C70  1  0.23820000  0.10790000  0.04890000  1.0
  C  C71  1  0.15290000  0.23700000  0.97980000  1.0
  C  C72  1  0.21150000  0.74370000  0.57500000  1.0
  C  C73  1  0.76810000  0.83200000  0.58520000  1.0
  C  C74  1  0.10720000  0.74610000  0.55160000  1.0
  C  C75  1  0.89280000  0.25390000  0.44840000  1.0
  C  C76  1  0.00020000  0.24430000  0.35220000  1.0
  C  C77  1  0.49700000  0.22600000  0.05060000  1.0
  C  C78  1  0.44130000  0.80200000  0.46410000  1.0
  C  C79  1  0.50300000  0.77400000  0.94940000  1.0
  C  C80  1  0.87240000  0.69040000  0.53190000  1.0
  C  C81  1  0.79960000  0.20860000  0.08350000  1.0
  C  C82  1  0.98870000  0.79890000  0.93150000  1.0
  C  C83  1  0.21010000  0.74350000  0.63300000  1.0
  C  C84  1  0.00350000  0.22430000  0.12540000  1.0
  C  C85  1  0.09050000  0.81010000  0.95320000  1.0
  C  C86  1  0.90950000  0.18990000  0.04680000  1.0
  C  C87  1  0.57300000  0.27600000  0.06900000  1.0
  C  C88  1  0.27750000  0.19200000  0.96550000  1.0
  C  C89  1  0.79540000  0.23380000  0.14050000  1.0
  C  C90  1  0.00000000  0.75490000  0.58960000  1.0
  C  C91  1  0.72250000  0.80800000  0.03450000  1.0
  C  C92  1  0.78850000  0.25630000  0.42500000  1.0
  C  C93  1  0.20040000  0.79140000  0.91650000  1.0
  C  C94  1  0.31700000  0.83200000  0.49240000  1.0
  C  C95  1  0.23190000  0.16800000  0.41480000  1.0
  C  C96  1  0.84710000  0.76300000  0.02020000  1.0
  C  C97  1  0.68250000  0.10000000  0.04370000  1.0
  C  C98  1  0.12760000  0.30960000  0.46810000  1.0
  C  C99  1  0.31750000  0.90000000  0.95630000  1.0
  C  C100  1  0.99980000  0.75570000  0.64780000  1.0
  C  C101  1  0.01130000  0.20110000  0.06850000  1.0
  C  C102  1  0.20460000  0.76620000  0.85950000  1.0
  C  C103  1  0.55870000  0.19800000  0.53590000  1.0
  C  C104  1  0.76180000  0.89210000  0.95110000  1.0
  C  C105  1  0.42700000  0.72400000  0.93100000  1.0
  C  C106  1  0.56290000  0.32260000  0.46210000  1.0
  C  C107  1  0.00000000  0.24510000  0.41040000  1.0
  C  C108  1  0.68900000  0.80600000  0.55490000  1.0
  C  C109  1  0.68300000  0.16800000  0.50760000  1.0
  C  C110  1  0.43710000  0.67740000  0.53790000  1.0
  N  N111  1  0.88430000  0.75960000  0.56950000  1.0
  N  N112  1  0.10290000  0.76010000  0.83880000  1.0
  N  N113  1  0.24630000  0.28390000  0.47840000  1.0
  N  N114  1  0.87160000  0.81550000  0.96570000  1.0
  N  N115  1  0.43620000  0.88620000  0.96550000  1.0
  N  N116  1  0.48430000  0.28980000  0.50450000  1.0
  N  N117  1  0.89710000  0.23990000  0.16120000  1.0
  N  N118  1  0.31060000  0.80270000  0.93510000  1.0
  N  N119  1  0.68940000  0.19730000  0.06490000  1.0
  N  N120  1  0.89360000  0.25110000  0.33070000  1.0
  N  N121  1  0.11570000  0.24040000  0.43050000  1.0
  N  N122  1  0.12840000  0.18450000  0.03430000  1.0
  N  N123  1  0.66870000  0.89120000  0.99240000  1.0
  N  N124  1  0.56380000  0.11380000  0.03450000  1.0
  N  N125  1  0.10640000  0.74890000  0.66930000  1.0
  N  N126  1  0.51570000  0.71020000  0.49550000  1.0
  N  N127  1  0.32030000  0.74890000  0.53660000  1.0
  N  N128  1  0.75370000  0.71610000  0.52160000  1.0
  N  N129  1  0.67970000  0.25110000  0.46340000  1.0
  N  N130  1  0.33130000  0.10880000  0.00760000  1.0
  O  O131  1  0.89250000  0.29860000  0.90600000  1.0
  O  O132  1  0.91500000  0.15920000  0.71130000  1.0
  O  O133  1  0.65380000  0.17940000  0.70120000  1.0
  O  O134  1  0.82360000  0.26420000  0.59780000  1.0
  O  O135  1  0.73900000  0.07640000  0.79720000  1.0
  O  O136  1  0.83690000  0.26940000  0.80690000  1.0
  O  O137  1  0.18010000  0.88210000  0.10860000  1.0
  O  O138  1  0.10370000  0.21460000  0.83020000  1.0
  O  O139  1  0.66320000  0.50250000  0.81030000  1.0
  O  O140  1  0.19300000  0.87000000  0.74260000  1.0
  O  O141  1  0.85020000  0.04550000  0.63860000  1.0
  O  O142  1  0.89050000  0.44490000  0.61150000  1.0
  O  O143  1  0.13530000  0.43200000  0.56640000  1.0
  O  O144  1  0.01320000  0.34870000  0.23290000  1.0
  O  O145  1  0.17640000  0.73580000  0.40220000  1.0
  O  O146  1  0.58520000  0.38250000  0.63790000  1.0
  O  O147  1  0.02130000  0.65030000  0.27960000  1.0
  O  O148  1  0.93950000  0.94010000  0.73640000  1.0
  O  O149  1  0.34660000  0.67030000  0.10810000  1.0
  O  O150  1  0.65340000  0.32970000  0.89190000  1.0
  O  O151  1  0.97870000  0.34970000  0.72040000  1.0
  O  O152  1  0.16310000  0.73060000  0.19310000  1.0
  O  O153  1  0.03020000  0.52140000  0.67160000  1.0
  O  O154  1  0.13480000  0.42590000  0.76830000  1.0
  O  O155  1  0.98680000  0.65130000  0.76710000  1.0
  O  O156  1  0.81990000  0.11790000  0.89140000  1.0
  O  O157  1  0.18030000  0.10190000  0.73120000  1.0
  O  O158  1  0.65510000  0.56540000  0.64870000  1.0
  O  O159  1  0.10750000  0.70140000  0.09400000  1.0
  O  O160  1  0.81970000  0.89810000  0.26880000  1.0
  O  O161  1  0.74460000  0.36810000  0.70860000  1.0
  O  O162  1  0.10470000  0.52770000  0.17650000  1.0
  O  O163  1  0.26100000  0.92360000  0.20280000  1.0
  O  O164  1  0.06050000  0.05990000  0.26360000  1.0
  O  O165  1  0.10950000  0.55510000  0.38850000  1.0
  O  O166  1  0.20820000  0.31280000  0.66700000  1.0
  O  O167  1  0.29620000  0.52360000  0.46160000  1.0
  O  O168  1  0.94720000  0.75980000  0.38580000  1.0
  O  O169  1  0.98290000  0.95650000  0.18680000  1.0
  O  O170  1  0.01710000  0.04350000  0.81320000  1.0
  O  O171  1  0.19410000  0.42470000  0.27050000  1.0
  O  O172  1  0.41740000  0.71420000  0.20430000  1.0
  O  O173  1  0.59550000  0.67150000  0.28030000  1.0
  O  O174  1  0.08730000  0.01420000  0.65260000  1.0
  O  O175  1  0.34490000  0.43460000  0.35130000  1.0
  O  O176  1  0.79180000  0.68720000  0.33300000  1.0
  O  O177  1  0.89530000  0.47230000  0.82350000  1.0
  O  O178  1  0.25540000  0.63190000  0.29140000  1.0
  O  O179  1  0.96980000  0.47860000  0.32840000  1.0
  O  O180  1  0.08500000  0.84080000  0.28870000  1.0
  O  O181  1  0.86470000  0.56800000  0.43360000  1.0
  O  O182  1  0.33680000  0.49750000  0.18970000  1.0
  O  O183  1  0.58260000  0.28580000  0.79570000  1.0
  O  O184  1  0.48330000  0.50880000  0.26420000  1.0
  O  O185  1  0.80700000  0.13000000  0.25740000  1.0
  O  O186  1  0.89630000  0.78540000  0.16980000  1.0
  O  O187  1  0.91270000  0.98580000  0.34740000  1.0
  O  O188  1  0.51670000  0.49120000  0.73580000  1.0
  O  O189  1  0.40450000  0.32850000  0.71970000  1.0
  O  O190  1  0.86520000  0.57410000  0.23170000  1.0
  O  O191  1  0.34620000  0.82060000  0.29880000  1.0
  O  O192  1  0.14980000  0.95450000  0.36140000  1.0
  O  O193  1  0.70380000  0.47640000  0.53840000  1.0
  O  O194  1  0.05280000  0.24020000  0.61420000  1.0
  O  O195  1  0.41480000  0.61750000  0.36210000  1.0
  O  O196  1  0.80590000  0.57530000  0.72950000  1.0
