# generated using pymatgen
data_Y2Cu5Si2H36W22C44(N5O16)4
_symmetry_space_group_name_H-M   'P 1'
_cell_length_a   11.33500000
_cell_length_b   12.15200000
_cell_length_c   23.31900000
_cell_angle_alpha   83.54300000
_cell_angle_beta   81.74100000
_cell_angle_gamma   71.11200000
_symmetry_Int_Tables_number   1
_chemical_formula_structural   Y2Cu5Si2H36W22C44(N5O16)4
_chemical_formula_sum   'Y2 Cu5 Si2 H36 W22 C44 N20 O64'
_cell_volume   3000.08029517
_cell_formula_units_Z   1
loop_
 _symmetry_equiv_pos_site_id
 _symmetry_equiv_pos_as_xyz
  1  'x, y, z'
loop_
 _atom_site_type_symbol
 _atom_site_label
 _atom_site_symmetry_multiplicity
 _atom_site_fract_x
 _atom_site_fract_y
 _atom_site_fract_z
 _atom_site_occupancy
  Y  Y0  1  0.25550000  0.23653000  0.25890000  1.0
  Y  Y1  1  0.74450000  0.76347000  0.74110000  1.0
  Cu  Cu2  1  0.10780000  0.74400000  0.25484000  1.0
  Cu  Cu3  1  0.69250000  0.62980000  0.97174000  1.0
  Cu  Cu4  1  0.89220000  0.25600000  0.74516000  1.0
  Cu  Cu5  1  0.30750000  0.37020000  0.02826000  1.0
  Cu  Cu6  1  0.50000000  0.00000000  0.50000000  1.0
  Si  Si7  1  0.86880000  0.28680000  0.23770000  1.0
  Si  Si8  1  0.13120000  0.71320000  0.76230000  1.0
  H  H9  1  0.92720000  0.76900000  0.35990000  1.0
  H  H10  1  0.08360000  0.83090000  0.49220000  1.0
  H  H11  1  0.27740000  0.75530000  0.33530000  1.0
  H  H12  1  0.75210000  0.92710000  0.41800000  1.0
  H  H13  1  0.67530000  0.79840000  0.56960000  1.0
  H  H14  1  0.90520000  0.69990000  0.53710000  1.0
  H  H15  1  0.45410000  0.64910000  0.41270000  1.0
  H  H16  1  0.59210000  0.73080000  0.45250000  1.0
  H  H17  1  0.25400000  0.96040000  0.46230000  1.0
  H  H18  1  0.92970000  0.75450000  0.17230000  1.0
  H  H19  1  0.10150000  0.75280000  0.01030000  1.0
  H  H20  1  0.28520000  0.73500000  0.14950000  1.0
  H  H21  1  0.46240000  0.61440000  0.06640000  1.0
  H  H22  1  0.25320000  0.90350000  0.98230000  1.0
  H  H23  1  0.47220000  0.83210000  0.93190000  1.0
  H  H24  1  0.93900000  0.62930000  0.01350000  1.0
  H  H25  1  0.75000000  0.89480000  0.11040000  1.0
  H  H26  1  0.59800000  0.84160000  0.06100000  1.0
  H  H27  1  0.07280000  0.23100000  0.64010000  1.0
  H  H28  1  0.91640000  0.16910000  0.50780000  1.0
  H  H29  1  0.72260000  0.24470000  0.66470000  1.0
  H  H30  1  0.24790000  0.07290000  0.58200000  1.0
  H  H31  1  0.32470000  0.20160000  0.43040000  1.0
  H  H32  1  0.09480000  0.30010000  0.46290000  1.0
  H  H33  1  0.54590000  0.35090000  0.58730000  1.0
  H  H34  1  0.40790000  0.26920000  0.54750000  1.0
  H  H35  1  0.74600000  0.03960000  0.53770000  1.0
  H  H36  1  0.07030000  0.24550000  0.82770000  1.0
  H  H37  1  0.89850000  0.24720000  0.98970000  1.0
  H  H38  1  0.71480000  0.26500000  0.85050000  1.0
  H  H39  1  0.53760000  0.38560000  0.93360000  1.0
  H  H40  1  0.74680000  0.09650000  0.01770000  1.0
  H  H41  1  0.52780000  0.16790000  0.06810000  1.0
  H  H42  1  0.06100000  0.37070000  0.98650000  1.0
  H  H43  1  0.25000000  0.10520000  0.88960000  1.0
  H  H44  1  0.40200000  0.15840000  0.93900000  1.0
  W  W45  1  0.08615000  0.01098000  0.23558000  1.0
  W  W46  1  0.98687000  0.15729000  0.36891000  1.0
  W  W47  1  0.98008000  0.51458000  0.25469000  1.0
  W  W48  1  0.76239000  0.42068000  0.36972000  1.0
  W  W49  1  0.68097000  0.18445000  0.35560000  1.0
  W  W50  1  0.78609000  0.03283000  0.21918000  1.0
  W  W51  1  0.96737000  0.12952000  0.11126000  1.0
  W  W52  1  0.73909000  0.42428000  0.10830000  1.0
  W  W53  1  0.64621000  0.56719000  0.23155000  1.0
  W  W54  1  0.06895000  0.38338000  0.13301000  1.0
  W  W55  1  0.55873000  0.33143000  0.21797000  1.0
  W  W56  1  0.91385000  0.98902000  0.76442000  1.0
  W  W57  1  0.01313000  0.84271000  0.63109000  1.0
  W  W58  1  0.01992000  0.48542000  0.74531000  1.0
  W  W59  1  0.23761000  0.57932000  0.63028000  1.0
  W  W60  1  0.31903000  0.81555000  0.64440000  1.0
  W  W61  1  0.21391000  0.96717000  0.78082000  1.0
  W  W62  1  0.03263000  0.87048000  0.88874000  1.0
  W  W63  1  0.26091000  0.57572000  0.89170000  1.0
  W  W64  1  0.35379000  0.43281000  0.76845000  1.0
  W  W65  1  0.93105000  0.61662000  0.86699000  1.0
  W  W66  1  0.44127000  0.66857000  0.78203000  1.0
  C  C67  1  0.99860000  0.77240000  0.37380000  1.0
  C  C68  1  0.99190000  0.79130000  0.43000000  1.0
  C  C69  1  0.09100000  0.80800000  0.45480000  1.0
  C  C70  1  0.20380000  0.78600000  0.41640000  1.0
  C  C71  1  0.20300000  0.76530000  0.35990000  1.0
  C  C72  1  0.76300000  0.88600000  0.45390000  1.0
  C  C73  1  0.71900000  0.81460000  0.53450000  1.0
  C  C74  1  0.84800000  0.76100000  0.51810000  1.0
  C  C75  1  0.43100000  0.72100000  0.42830000  1.0
  C  C76  1  0.50700000  0.76800000  0.44930000  1.0
  C  C77  1  0.32200000  0.89300000  0.45550000  1.0
  C  C78  1  0.00200000  0.75240000  0.14740000  1.0
  C  C79  1  0.99830000  0.75540000  0.08930000  1.0
  C  C80  1  0.10280000  0.75170000  0.05010000  1.0
  C  C81  1  0.21170000  0.74630000  0.07450000  1.0
  C  C82  1  0.21140000  0.74170000  0.13440000  1.0
  C  C83  1  0.43970000  0.67620000  0.03860000  1.0
  C  C84  1  0.31800000  0.83700000  0.99220000  1.0
  C  C85  1  0.44300000  0.79760000  0.96630000  1.0
  C  C86  1  0.87260000  0.68770000  0.03090000  1.0
  C  C87  1  0.76800000  0.83570000  0.08540000  1.0
  C  C88  1  0.68500000  0.80700000  0.05770000  1.0
  C  C89  1  0.00140000  0.22760000  0.62620000  1.0
  C  C90  1  0.00810000  0.20870000  0.57000000  1.0
  C  C91  1  0.90900000  0.19200000  0.54520000  1.0
  C  C92  1  0.79620000  0.21400000  0.58360000  1.0
  C  C93  1  0.79700000  0.23470000  0.64010000  1.0
  C  C94  1  0.23700000  0.11400000  0.54610000  1.0
  C  C95  1  0.28100000  0.18540000  0.46550000  1.0
  C  C96  1  0.15200000  0.23900000  0.48190000  1.0
  C  C97  1  0.56900000  0.27900000  0.57170000  1.0
  C  C98  1  0.49300000  0.23200000  0.55070000  1.0
  C  C99  1  0.67800000  0.10700000  0.54450000  1.0
  C  C100  1  0.99800000  0.24760000  0.85260000  1.0
  C  C101  1  0.00170000  0.24460000  0.91070000  1.0
  C  C102  1  0.89720000  0.24830000  0.94990000  1.0
  C  C103  1  0.78830000  0.25370000  0.92550000  1.0
  C  C104  1  0.78860000  0.25830000  0.86560000  1.0
  C  C105  1  0.56030000  0.32380000  0.96140000  1.0
  C  C106  1  0.68200000  0.16300000  0.00780000  1.0
  C  C107  1  0.55700000  0.20240000  0.03370000  1.0
  C  C108  1  0.12740000  0.31230000  0.96910000  1.0
  C  C109  1  0.23200000  0.16430000  0.91460000  1.0
  C  C110  1  0.31500000  0.19300000  0.94230000  1.0
  N  N111  1  0.10390000  0.75830000  0.33710000  1.0
  N  N112  1  0.86770000  0.82450000  0.46620000  1.0
  N  N113  1  0.66890000  0.89000000  0.49300000  1.0
  N  N114  1  0.31180000  0.80010000  0.43430000  1.0
  N  N115  1  0.43770000  0.88170000  0.46590000  1.0
  N  N116  1  0.10810000  0.74660000  0.17050000  1.0
  N  N117  1  0.31830000  0.75200000  0.03580000  1.0
  N  N118  1  0.51870000  0.70360000  0.99620000  1.0
  N  N119  1  0.88540000  0.75710000  0.06770000  1.0
  N  N120  1  0.75670000  0.71050000  0.02200000  1.0
  N  N121  1  0.89610000  0.24170000  0.66290000  1.0
  N  N122  1  0.13230000  0.17550000  0.53380000  1.0
  N  N123  1  0.33110000  0.11000000  0.50700000  1.0
  N  N124  1  0.68820000  0.19990000  0.56570000  1.0
  N  N125  1  0.56230000  0.11830000  0.53410000  1.0
  N  N126  1  0.89190000  0.25340000  0.82950000  1.0
  N  N127  1  0.68170000  0.24800000  0.96420000  1.0
  N  N128  1  0.48130000  0.29640000  0.00380000  1.0
  N  N129  1  0.11460000  0.24290000  0.93230000  1.0
  N  N130  1  0.24330000  0.28950000  0.97800000  1.0
  O  O131  1  0.19390000  0.86920000  0.24260000  1.0
  O  O132  1  0.98460000  0.65470000  0.26780000  1.0
  O  O133  1  0.13740000  0.43100000  0.06570000  1.0
  O  O134  1  0.40820000  0.32410000  0.21970000  1.0
  O  O135  1  0.74450000  0.36630000  0.20880000  1.0
  O  O136  1  0.65330000  0.32960000  0.39170000  1.0
  O  O137  1  0.89350000  0.29780000  0.40510000  1.0
  O  O138  1  0.82260000  0.11300000  0.39130000  1.0
  O  O139  1  0.66050000  0.50350000  0.31150000  1.0
  O  O140  1  0.74290000  0.07120000  0.29800000  1.0
  O  O141  1  0.01620000  0.04320000  0.31260000  1.0
  O  O142  1  0.10120000  0.21780000  0.33110000  1.0
  O  O143  1  0.80370000  0.57750000  0.22970000  1.0
  O  O144  1  0.13370000  0.42560000  0.26880000  1.0
  O  O145  1  0.18320000  0.09960000  0.23150000  1.0
  O  O146  1  0.20610000  0.31460000  0.16600000  1.0
  O  O147  1  0.03180000  0.52060000  0.17050000  1.0
  O  O148  1  0.89080000  0.44460000  0.11110000  1.0
  O  O149  1  0.65560000  0.56340000  0.15010000  1.0
  O  O150  1  0.82200000  0.26550000  0.09880000  1.0
  O  O151  1  0.08940000  0.01250000  0.15160000  1.0
  O  O152  1  0.93790000  0.94170000  0.23730000  1.0
  O  O153  1  0.51660000  0.49100000  0.23550000  1.0
  O  O154  1  0.85220000  0.04280000  0.13800000  1.0
  O  O155  1  0.65320000  0.17980000  0.20040000  1.0
  O  O156  1  0.05070000  0.24110000  0.11550000  1.0
  O  O157  1  0.58190000  0.28550000  0.29660000  1.0
  O  O158  1  0.89420000  0.47380000  0.32470000  1.0
  O  O159  1  0.58840000  0.37820000  0.13680000  1.0
  O  O160  1  0.83610000  0.26810000  0.30790000  1.0
  O  O161  1  0.91540000  0.15880000  0.21170000  1.0
  O  O162  1  0.97730000  0.34750000  0.22090000  1.0
  O  O163  1  0.80610000  0.13080000  0.75740000  1.0
  O  O164  1  0.01540000  0.34530000  0.73220000  1.0
  O  O165  1  0.86260000  0.56900000  0.93430000  1.0
  O  O166  1  0.59180000  0.67590000  0.78030000  1.0
  O  O167  1  0.25550000  0.63370000  0.79120000  1.0
  O  O168  1  0.34670000  0.67040000  0.60830000  1.0
  O  O169  1  0.10650000  0.70220000  0.59490000  1.0
  O  O170  1  0.17740000  0.88700000  0.60870000  1.0
  O  O171  1  0.33950000  0.49650000  0.68850000  1.0
  O  O172  1  0.25710000  0.92880000  0.70200000  1.0
  O  O173  1  0.98380000  0.95680000  0.68740000  1.0
  O  O174  1  0.89880000  0.78220000  0.66890000  1.0
  O  O175  1  0.19630000  0.42250000  0.77030000  1.0
  O  O176  1  0.86630000  0.57440000  0.73120000  1.0
  O  O177  1  0.81680000  0.90040000  0.76850000  1.0
  O  O178  1  0.79390000  0.68540000  0.83400000  1.0
  O  O179  1  0.96820000  0.47940000  0.82950000  1.0
  O  O180  1  0.10920000  0.55540000  0.88890000  1.0
  O  O181  1  0.34440000  0.43660000  0.84990000  1.0
  O  O182  1  0.17800000  0.73450000  0.90120000  1.0
  O  O183  1  0.91060000  0.98750000  0.84840000  1.0
  O  O184  1  0.06210000  0.05830000  0.76270000  1.0
  O  O185  1  0.48340000  0.50900000  0.76450000  1.0
  O  O186  1  0.14780000  0.95720000  0.86200000  1.0
  O  O187  1  0.34680000  0.82020000  0.79960000  1.0
  O  O188  1  0.94930000  0.75890000  0.88450000  1.0
  O  O189  1  0.41810000  0.71450000  0.70340000  1.0
  O  O190  1  0.10580000  0.52620000  0.67530000  1.0
  O  O191  1  0.41160000  0.62180000  0.86320000  1.0
  O  O192  1  0.16390000  0.73190000  0.69210000  1.0
  O  O193  1  0.08460000  0.84120000  0.78830000  1.0
  O  O194  1  0.02270000  0.65250000  0.77910000  1.0
