# generated using pymatgen
data_Zn4H17C32O15
_symmetry_space_group_name_H-M   'P 1'
_cell_length_a   10.31600000
_cell_length_b   26.09600000
_cell_length_c   27.88900000
_cell_angle_alpha   90.00000000
_cell_angle_beta   93.78000000
_cell_angle_gamma   90.00000000
_symmetry_Int_Tables_number   1
_chemical_formula_structural   Zn4H17C32O15
_chemical_formula_sum   'Zn16 H68 C128 O60'
_cell_volume   7491.56238929
_cell_formula_units_Z   4
loop_
 _symmetry_equiv_pos_site_id
 _symmetry_equiv_pos_as_xyz
  1  'x, y, z'
loop_
 _atom_site_type_symbol
 _atom_site_label
 _atom_site_symmetry_multiplicity
 _atom_site_fract_x
 _atom_site_fract_y
 _atom_site_fract_z
 _atom_site_occupancy
  Zn  Zn0  1  0.11818000  0.25819000  0.66561000  1.0
  Zn  Zn1  1  0.82389000  0.25304000  0.66105000  1.0
  Zn  Zn2  1  0.96788000  0.35923000  0.65913000  1.0
  Zn  Zn3  1  0.95220000  0.28501000  0.56565000  1.0
  Zn  Zn4  1  0.38182000  0.75819000  0.83439000  1.0
  Zn  Zn5  1  0.67611000  0.75304000  0.83895000  1.0
  Zn  Zn6  1  0.53212000  0.85923000  0.84087000  1.0
  Zn  Zn7  1  0.54780000  0.78501000  0.93435000  1.0
  Zn  Zn8  1  0.88182000  0.74181000  0.33439000  1.0
  Zn  Zn9  1  0.17611000  0.74696000  0.33895000  1.0
  Zn  Zn10  1  0.03212000  0.64077000  0.34087000  1.0
  Zn  Zn11  1  0.04780000  0.71499000  0.43435000  1.0
  Zn  Zn12  1  0.61818000  0.24181000  0.16561000  1.0
  Zn  Zn13  1  0.32389000  0.24696000  0.16105000  1.0
  Zn  Zn14  1  0.46788000  0.14077000  0.15913000  1.0
  Zn  Zn15  1  0.45220000  0.21499000  0.06565000  1.0
  H  H16  1  0.45320000  0.23430000  0.59540000  1.0
  H  H17  1  0.24230000  0.23790000  0.47020000  1.0
  H  H18  1  0.63310000  0.23270000  0.47300000  1.0
  H  H19  1  0.26580000  0.27300000  0.39650000  1.0
  H  H20  1  0.25630000  0.27100000  0.31410000  1.0
  H  H21  1  0.59330000  0.19500000  0.31940000  1.0
  H  H22  1  0.59070000  0.19100000  0.40210000  1.0
  H  H23  1  0.84730000  0.45560000  0.52150000  1.0
  H  H24  1  0.96160000  0.43360000  0.49230000  1.0
  H  H25  1  0.99340000  0.46950000  0.53740000  1.0
  H  H26  1  0.48000000  0.32850000  0.67930000  1.0
  H  H27  1  0.67520000  0.45480000  0.72590000  1.0
  H  H28  1  0.28660000  0.44990000  0.72850000  1.0
  H  H29  1  0.66390000  0.50920000  0.78760000  1.0
  H  H30  1  0.65870000  0.59000000  0.82190000  1.0
  H  H31  1  0.30770000  0.61520000  0.75910000  1.0
  H  H32  1  0.30930000  0.53640000  0.72430000  1.0
  H  H33  1  0.04680000  0.73430000  0.90460000  1.0
  H  H34  1  0.25770000  0.73790000  0.02980000  1.0
  H  H35  1  0.86690000  0.73270000  0.02700000  1.0
  H  H36  1  0.23420000  0.77300000  0.10350000  1.0
  H  H37  1  0.24370000  0.77100000  0.18590000  1.0
  H  H38  1  0.90670000  0.69500000  0.18060000  1.0
  H  H39  1  0.90930000  0.69100000  0.09790000  1.0
  H  H40  1  0.65270000  0.95560000  0.97850000  1.0
  H  H41  1  0.53840000  0.93360000  0.00770000  1.0
  H  H42  1  0.50660000  0.96950000  0.96260000  1.0
  H  H43  1  0.02000000  0.82850000  0.82070000  1.0
  H  H44  1  0.82480000  0.95480000  0.77410000  1.0
  H  H45  1  0.21340000  0.94990000  0.77150000  1.0
  H  H46  1  0.83610000  0.00920000  0.71240000  1.0
  H  H47  1  0.84130000  0.09000000  0.67810000  1.0
  H  H48  1  0.19230000  0.11520000  0.74090000  1.0
  H  H49  1  0.19070000  0.03640000  0.77570000  1.0
  H  H50  1  0.54680000  0.76570000  0.40460000  1.0
  H  H51  1  0.75770000  0.76210000  0.52980000  1.0
  H  H52  1  0.36690000  0.76730000  0.52700000  1.0
  H  H53  1  0.73420000  0.72700000  0.60350000  1.0
  H  H54  1  0.74370000  0.72900000  0.68590000  1.0
  H  H55  1  0.40670000  0.80500000  0.68060000  1.0
  H  H56  1  0.40930000  0.80900000  0.59790000  1.0
  H  H57  1  0.15270000  0.54440000  0.47850000  1.0
  H  H58  1  0.03840000  0.56640000  0.50770000  1.0
  H  H59  1  0.00660000  0.53050000  0.46260000  1.0
  H  H60  1  0.52000000  0.67150000  0.32070000  1.0
  H  H61  1  0.32480000  0.54520000  0.27410000  1.0
  H  H62  1  0.71340000  0.55010000  0.27150000  1.0
  H  H63  1  0.33610000  0.49080000  0.21240000  1.0
  H  H64  1  0.34130000  0.41000000  0.17810000  1.0
  H  H65  1  0.69230000  0.38480000  0.24090000  1.0
  H  H66  1  0.69070000  0.46360000  0.27570000  1.0
  H  H67  1  0.95320000  0.26570000  0.09540000  1.0
  H  H68  1  0.74230000  0.26210000  0.97020000  1.0
  H  H69  1  0.13310000  0.26730000  0.97300000  1.0
  H  H70  1  0.76580000  0.22700000  0.89650000  1.0
  H  H71  1  0.75630000  0.22900000  0.81410000  1.0
  H  H72  1  0.09330000  0.30500000  0.81940000  1.0
  H  H73  1  0.09070000  0.30900000  0.90210000  1.0
  H  H74  1  0.34730000  0.04440000  0.02150000  1.0
  H  H75  1  0.46160000  0.06640000  0.99230000  1.0
  H  H76  1  0.49340000  0.03050000  0.03740000  1.0
  H  H77  1  0.98000000  0.17150000  0.17930000  1.0
  H  H78  1  0.17520000  0.04520000  0.22590000  1.0
  H  H79  1  0.78660000  0.05010000  0.22850000  1.0
  H  H80  1  0.16390000  0.99080000  0.28760000  1.0
  H  H81  1  0.15870000  0.91000000  0.32190000  1.0
  H  H82  1  0.80770000  0.88480000  0.25910000  1.0
  H  H83  1  0.80930000  0.96360000  0.22430000  1.0
  C  C84  1  0.69160000  0.23837000  0.56686000  1.0
  C  C85  1  0.56150000  0.23512000  0.53805000  1.0
  C  C86  1  0.44900000  0.23582000  0.56169000  1.0
  C  C87  1  0.33020000  0.23866000  0.53638000  1.0
  C  C88  1  0.32380000  0.23700000  0.48736000  1.0
  C  C89  1  0.43820000  0.23390000  0.46178000  1.0
  C  C90  1  0.55550000  0.23380000  0.48882000  1.0
  C  C91  1  0.20760000  0.24317000  0.56328000  1.0
  C  C92  1  0.43260000  0.23350000  0.40852000  1.0
  C  C93  1  0.33210000  0.25630000  0.38100000  1.0
  C  C94  1  0.32630000  0.25520000  0.33170000  1.0
  C  C95  1  0.42210000  0.23110000  0.30737000  1.0
  C  C96  1  0.52360000  0.20950000  0.33470000  1.0
  C  C97  1  0.52440000  0.20890000  0.38450000  1.0
  C  C98  1  0.41880000  0.23020000  0.25370000  1.0
  C  C99  1  0.94440000  0.39650000  0.55640000  1.0
  C  C100  1  0.93590000  0.44290000  0.52400000  1.0
  C  C101  1  0.24160000  0.35767000  0.69099000  1.0
  C  C102  1  0.36480000  0.38504000  0.70301000  1.0
  C  C103  1  0.48000000  0.36201000  0.69177000  1.0
  C  C104  1  0.59660000  0.38932000  0.69922000  1.0
  C  C105  1  0.59610000  0.43732000  0.72015000  1.0
  C  C106  1  0.48250000  0.46052000  0.73290000  1.0
  C  C107  1  0.36570000  0.43415000  0.72238000  1.0
  C  C108  1  0.71720000  0.36382000  0.68335000  1.0
  C  C109  1  0.48400000  0.51203000  0.75317000  1.0
  C  C110  1  0.59030000  0.53000000  0.78180000  1.0
  C  C111  1  0.58740000  0.57880000  0.80190000  1.0
  C  C112  1  0.48380000  0.61073000  0.79336000  1.0
  C  C113  1  0.38040000  0.59380000  0.76490000  1.0
  C  C114  1  0.38100000  0.54640000  0.74470000  1.0
  C  C115  1  0.48620000  0.66425000  0.81442000  1.0
  C  C116  1  0.80840000  0.73837000  0.93314000  1.0
  C  C117  1  0.93850000  0.73512000  0.96195000  1.0
  C  C118  1  0.05100000  0.73582000  0.93831000  1.0
  C  C119  1  0.16980000  0.73866000  0.96362000  1.0
  C  C120  1  0.17620000  0.73700000  0.01264000  1.0
  C  C121  1  0.06180000  0.73390000  0.03822000  1.0
  C  C122  1  0.94450000  0.73380000  0.01118000  1.0
  C  C123  1  0.29240000  0.74317000  0.93672000  1.0
  C  C124  1  0.06740000  0.73350000  0.09148000  1.0
  C  C125  1  0.16790000  0.75630000  0.11900000  1.0
  C  C126  1  0.17370000  0.75520000  0.16830000  1.0
  C  C127  1  0.07790000  0.73110000  0.19263000  1.0
  C  C128  1  0.97640000  0.70950000  0.16530000  1.0
  C  C129  1  0.97560000  0.70890000  0.11550000  1.0
  C  C130  1  0.08120000  0.73020000  0.24630000  1.0
  C  C131  1  0.55560000  0.89650000  0.94360000  1.0
  C  C132  1  0.56410000  0.94290000  0.97600000  1.0
  C  C133  1  0.25840000  0.85767000  0.80901000  1.0
  C  C134  1  0.13520000  0.88504000  0.79699000  1.0
  C  C135  1  0.02000000  0.86201000  0.80823000  1.0
  C  C136  1  0.90340000  0.88932000  0.80078000  1.0
  C  C137  1  0.90390000  0.93732000  0.77985000  1.0
  C  C138  1  0.01750000  0.96052000  0.76710000  1.0
  C  C139  1  0.13430000  0.93415000  0.77762000  1.0
  C  C140  1  0.78280000  0.86382000  0.81665000  1.0
  C  C141  1  0.01600000  0.01203000  0.74683000  1.0
  C  C142  1  0.90970000  0.03000000  0.71820000  1.0
  C  C143  1  0.91260000  0.07880000  0.69810000  1.0
  C  C144  1  0.01620000  0.11073000  0.70664000  1.0
  C  C145  1  0.11960000  0.09380000  0.73510000  1.0
  C  C146  1  0.11900000  0.04640000  0.75530000  1.0
  C  C147  1  0.01380000  0.16425000  0.68558000  1.0
  C  C148  1  0.30840000  0.76163000  0.43314000  1.0
  C  C149  1  0.43850000  0.76488000  0.46195000  1.0
  C  C150  1  0.55100000  0.76418000  0.43831000  1.0
  C  C151  1  0.66980000  0.76134000  0.46362000  1.0
  C  C152  1  0.67620000  0.76300000  0.51264000  1.0
  C  C153  1  0.56180000  0.76610000  0.53822000  1.0
  C  C154  1  0.44450000  0.76620000  0.51118000  1.0
  C  C155  1  0.79240000  0.75683000  0.43672000  1.0
  C  C156  1  0.56740000  0.76650000  0.59148000  1.0
  C  C157  1  0.66790000  0.74370000  0.61900000  1.0
  C  C158  1  0.67370000  0.74480000  0.66830000  1.0
  C  C159  1  0.57790000  0.76890000  0.69263000  1.0
  C  C160  1  0.47640000  0.79050000  0.66530000  1.0
  C  C161  1  0.47560000  0.79110000  0.61550000  1.0
  C  C162  1  0.58120000  0.76980000  0.74630000  1.0
  C  C163  1  0.05560000  0.60350000  0.44360000  1.0
  C  C164  1  0.06410000  0.55710000  0.47600000  1.0
  C  C165  1  0.75840000  0.64233000  0.30901000  1.0
  C  C166  1  0.63520000  0.61496000  0.29699000  1.0
  C  C167  1  0.52000000  0.63799000  0.30823000  1.0
  C  C168  1  0.40340000  0.61068000  0.30078000  1.0
  C  C169  1  0.40390000  0.56268000  0.27985000  1.0
  C  C170  1  0.51750000  0.53948000  0.26710000  1.0
  C  C171  1  0.63430000  0.56585000  0.27762000  1.0
  C  C172  1  0.28280000  0.63618000  0.31665000  1.0
  C  C173  1  0.51600000  0.48797000  0.24683000  1.0
  C  C174  1  0.40970000  0.47000000  0.21820000  1.0
  C  C175  1  0.41260000  0.42120000  0.19810000  1.0
  C  C176  1  0.51620000  0.38927000  0.20664000  1.0
  C  C177  1  0.61960000  0.40620000  0.23510000  1.0
  C  C178  1  0.61900000  0.45360000  0.25530000  1.0
  C  C179  1  0.51380000  0.33575000  0.18558000  1.0
  C  C180  1  0.19160000  0.26163000  0.06686000  1.0
  C  C181  1  0.06150000  0.26488000  0.03805000  1.0
  C  C182  1  0.94900000  0.26418000  0.06169000  1.0
  C  C183  1  0.83020000  0.26134000  0.03638000  1.0
  C  C184  1  0.82380000  0.26300000  0.98736000  1.0
  C  C185  1  0.93820000  0.26610000  0.96178000  1.0
  C  C186  1  0.05550000  0.26620000  0.98882000  1.0
  C  C187  1  0.70760000  0.25683000  0.06328000  1.0
  C  C188  1  0.93260000  0.26650000  0.90852000  1.0
  C  C189  1  0.83210000  0.24370000  0.88100000  1.0
  C  C190  1  0.82630000  0.24480000  0.83170000  1.0
  C  C191  1  0.92210000  0.26890000  0.80737000  1.0
  C  C192  1  0.02360000  0.29050000  0.83470000  1.0
  C  C193  1  0.02440000  0.29110000  0.88450000  1.0
  C  C194  1  0.91880000  0.26980000  0.75370000  1.0
  C  C195  1  0.44440000  0.10350000  0.05640000  1.0
  C  C196  1  0.43590000  0.05710000  0.02400000  1.0
  C  C197  1  0.74160000  0.14233000  0.19099000  1.0
  C  C198  1  0.86480000  0.11496000  0.20301000  1.0
  C  C199  1  0.98000000  0.13799000  0.19177000  1.0
  C  C200  1  0.09660000  0.11068000  0.19922000  1.0
  C  C201  1  0.09610000  0.06268000  0.22015000  1.0
  C  C202  1  0.98250000  0.03948000  0.23290000  1.0
  C  C203  1  0.86570000  0.06585000  0.22238000  1.0
  C  C204  1  0.21720000  0.13618000  0.18335000  1.0
  C  C205  1  0.98400000  0.98797000  0.25317000  1.0
  C  C206  1  0.09030000  0.97000000  0.28180000  1.0
  C  C207  1  0.08740000  0.92120000  0.30190000  1.0
  C  C208  1  0.98380000  0.88927000  0.29336000  1.0
  C  C209  1  0.88040000  0.90620000  0.26490000  1.0
  C  C210  1  0.88100000  0.95360000  0.24470000  1.0
  C  C211  1  0.98620000  0.83575000  0.31442000  1.0
  O  O212  1  0.96630000  0.29017000  0.63349000  1.0
  O  O213  1  0.78760000  0.25198000  0.54321000  1.0
  O  O214  1  0.69230000  0.23041000  0.61069000  1.0
  O  O215  1  0.21890000  0.23664000  0.60716000  1.0
  O  O216  1  0.10400000  0.25442000  0.53831000  1.0
  O  O217  1  0.32400000  0.25164000  0.23129000  1.0
  O  O218  1  0.51160000  0.21060000  0.23539000  1.0
  O  O219  1  0.13640000  0.38278000  0.68729000  1.0
  O  O220  1  0.25010000  0.30901000  0.68551000  1.0
  O  O221  1  0.70750000  0.32153000  0.66388000  1.0
  O  O222  1  0.82410000  0.38851000  0.69155000  1.0
  O  O223  1  0.58460000  0.67914000  0.83884000  1.0
  O  O224  1  0.38430000  0.69181000  0.80522000  1.0
  O  O225  1  0.95880000  0.40381000  0.59969000  1.0
  O  O226  1  0.94040000  0.35356000  0.53615000  1.0
  O  O227  1  0.53370000  0.79017000  0.86651000  1.0
  O  O228  1  0.71240000  0.75198000  0.95679000  1.0
  O  O229  1  0.80770000  0.73041000  0.88931000  1.0
  O  O230  1  0.28110000  0.73664000  0.89284000  1.0
  O  O231  1  0.39600000  0.75442000  0.96169000  1.0
  O  O232  1  0.17600000  0.75164000  0.26871000  1.0
  O  O233  1  0.98840000  0.71060000  0.26461000  1.0
  O  O234  1  0.36360000  0.88278000  0.81271000  1.0
  O  O235  1  0.24990000  0.80901000  0.81449000  1.0
  O  O236  1  0.79250000  0.82153000  0.83612000  1.0
  O  O237  1  0.67590000  0.88851000  0.80845000  1.0
  O  O238  1  0.91540000  0.17914000  0.66116000  1.0
  O  O239  1  0.11570000  0.19181000  0.69478000  1.0
  O  O240  1  0.54120000  0.90381000  0.90031000  1.0
  O  O241  1  0.55960000  0.85356000  0.96385000  1.0
  O  O242  1  0.03370000  0.70983000  0.36651000  1.0
  O  O243  1  0.21240000  0.74802000  0.45679000  1.0
  O  O244  1  0.30770000  0.76959000  0.38931000  1.0
  O  O245  1  0.78110000  0.76336000  0.39284000  1.0
  O  O246  1  0.89600000  0.74558000  0.46169000  1.0
  O  O247  1  0.67600000  0.74836000  0.76871000  1.0
  O  O248  1  0.48840000  0.78940000  0.76461000  1.0
  O  O249  1  0.86360000  0.61722000  0.31271000  1.0
  O  O250  1  0.74990000  0.69099000  0.31449000  1.0
  O  O251  1  0.29250000  0.67847000  0.33612000  1.0
  O  O252  1  0.17590000  0.61149000  0.30845000  1.0
  O  O253  1  0.41540000  0.32086000  0.16116000  1.0
  O  O254  1  0.61570000  0.30819000  0.19478000  1.0
  O  O255  1  0.04120000  0.59619000  0.40031000  1.0
  O  O256  1  0.05960000  0.64644000  0.46385000  1.0
  O  O257  1  0.46630000  0.20983000  0.13349000  1.0
  O  O258  1  0.28760000  0.24802000  0.04321000  1.0
  O  O259  1  0.19230000  0.26959000  0.11069000  1.0
  O  O260  1  0.71890000  0.26336000  0.10716000  1.0
  O  O261  1  0.60400000  0.24558000  0.03831000  1.0
  O  O262  1  0.82400000  0.24836000  0.73129000  1.0
  O  O263  1  0.01160000  0.28940000  0.73539000  1.0
  O  O264  1  0.63640000  0.11722000  0.18729000  1.0
  O  O265  1  0.75010000  0.19099000  0.18551000  1.0
  O  O266  1  0.20750000  0.17847000  0.16388000  1.0
  O  O267  1  0.32410000  0.11149000  0.19155000  1.0
  O  O268  1  0.08460000  0.82086000  0.33884000  1.0
  O  O269  1  0.88430000  0.80819000  0.30522000  1.0
  O  O270  1  0.45880000  0.09619000  0.09969000  1.0
  O  O271  1  0.44040000  0.14644000  0.03615000  1.0
