# generated using pymatgen
data_Zn4H18C38O15
_symmetry_space_group_name_H-M   'P 1'
_cell_length_a   10.32700000
_cell_length_b   26.23700000
_cell_length_c   27.75600000
_cell_angle_alpha   90.00000000
_cell_angle_beta   93.83000000
_cell_angle_gamma   90.00000000
_symmetry_Int_Tables_number   1
_chemical_formula_structural   Zn4H18C38O15
_chemical_formula_sum   'Zn16 H72 C152 O60'
_cell_volume   7503.67829696
_cell_formula_units_Z   4
loop_
 _symmetry_equiv_pos_site_id
 _symmetry_equiv_pos_as_xyz
  1  'x, y, z'
loop_
 _atom_site_type_symbol
 _atom_site_label
 _atom_site_symmetry_multiplicity
 _atom_site_fract_x
 _atom_site_fract_y
 _atom_site_fract_z
 _atom_site_occupancy
  Zn  Zn0  1  0.18180000  0.76753000  0.33672000  1.0
  Zn  Zn1  1  0.88719000  0.77326000  0.33262000  1.0
  Zn  Zn2  1  0.05457000  0.79983000  0.43261000  1.0
  Zn  Zn3  1  0.04111000  0.87264000  0.33656000  1.0
  Zn  Zn4  1  0.31820000  0.26753000  0.16328000  1.0
  Zn  Zn5  1  0.61281000  0.27326000  0.16738000  1.0
  Zn  Zn6  1  0.44543000  0.29983000  0.06739000  1.0
  Zn  Zn7  1  0.45889000  0.37264000  0.16344000  1.0
  Zn  Zn8  1  0.81820000  0.23247000  0.66328000  1.0
  Zn  Zn9  1  0.11281000  0.22674000  0.66738000  1.0
  Zn  Zn10  1  0.94543000  0.20017000  0.56739000  1.0
  Zn  Zn11  1  0.95889000  0.12736000  0.66344000  1.0
  Zn  Zn12  1  0.68180000  0.73247000  0.83672000  1.0
  Zn  Zn13  1  0.38719000  0.72674000  0.83262000  1.0
  Zn  Zn14  1  0.55457000  0.70017000  0.93261000  1.0
  Zn  Zn15  1  0.54111000  0.62736000  0.83656000  1.0
  H  H16  1  0.53280000  0.84430000  0.31870000  1.0
  H  H17  1  0.33340000  0.97030000  0.27080000  1.0
  H  H18  1  0.37660000  0.73740000  0.52640000  1.0
  H  H19  1  0.55210000  0.75210000  0.40120000  1.0
  H  H20  1  0.72000000  0.96410000  0.26640000  1.0
  H  H21  1  0.76530000  0.74450000  0.52840000  1.0
  H  H22  1  0.22700000  0.89280000  0.52380000  1.0
  H  H23  1  0.83240000  0.96020000  0.38690000  1.0
  H  H24  1  0.69800000  0.05030000  0.27230000  1.0
  H  H25  1  0.35090000  0.02160000  0.20480000  1.0
  H  H26  1  0.42520000  0.68410000  0.59180000  1.0
  H  H27  1  0.72570000  0.78260000  0.60320000  1.0
  H  H28  1  0.36560000  0.90570000  0.58870000  1.0
  H  H29  1  0.68520000  0.01080000  0.36250000  1.0
  H  H30  1  0.69530000  0.13150000  0.24030000  1.0
  H  H31  1  0.34320000  0.10360000  0.17570000  1.0
  H  H32  1  0.44710000  0.67290000  0.67630000  1.0
  H  H33  1  0.74050000  0.77190000  0.68660000  1.0
  H  H34  1  0.96720000  0.34430000  0.18130000  1.0
  H  H35  1  0.16660000  0.47030000  0.22920000  1.0
  H  H36  1  0.12340000  0.23740000  0.97360000  1.0
  H  H37  1  0.94790000  0.25210000  0.09880000  1.0
  H  H38  1  0.78000000  0.46410000  0.23360000  1.0
  H  H39  1  0.73470000  0.24450000  0.97160000  1.0
  H  H40  1  0.27300000  0.39280000  0.97620000  1.0
  H  H41  1  0.66760000  0.46020000  0.11310000  1.0
  H  H42  1  0.80200000  0.55030000  0.22770000  1.0
  H  H43  1  0.14910000  0.52160000  0.29520000  1.0
  H  H44  1  0.07480000  0.18410000  0.90820000  1.0
  H  H45  1  0.77430000  0.28260000  0.89680000  1.0
  H  H46  1  0.13440000  0.40570000  0.91130000  1.0
  H  H47  1  0.81480000  0.51080000  0.13750000  1.0
  H  H48  1  0.80470000  0.63150000  0.25970000  1.0
  H  H49  1  0.15680000  0.60360000  0.32430000  1.0
  H  H50  1  0.05290000  0.17290000  0.82370000  1.0
  H  H51  1  0.75950000  0.27190000  0.81340000  1.0
  H  H52  1  0.46720000  0.15570000  0.68130000  1.0
  H  H53  1  0.66666667  0.02970000  0.72920000  1.0
  H  H54  1  0.62340000  0.26260000  0.47360000  1.0
  H  H55  1  0.44790000  0.24790000  0.59880000  1.0
  H  H56  1  0.28000000  0.03590000  0.73360000  1.0
  H  H57  1  0.23470000  0.25550000  0.47160000  1.0
  H  H58  1  0.77300000  0.10720000  0.47620000  1.0
  H  H59  1  0.16760000  0.03980000  0.61310000  1.0
  H  H60  1  0.30200000  0.94970000  0.72770000  1.0
  H  H61  1  0.64910000  0.97840000  0.79520000  1.0
  H  H62  1  0.57480000  0.31590000  0.40820000  1.0
  H  H63  1  0.27430000  0.21740000  0.39680000  1.0
  H  H64  1  0.63440000  0.09430000  0.41130000  1.0
  H  H65  1  0.31480000  0.98920000  0.63750000  1.0
  H  H66  1  0.30470000  0.86850000  0.75970000  1.0
  H  H67  1  0.65680000  0.89640000  0.82430000  1.0
  H  H68  1  0.55290000  0.32710000  0.32370000  1.0
  H  H69  1  0.25950000  0.22810000  0.31340000  1.0
  H  H70  1  0.03280000  0.65570000  0.81870000  1.0
  H  H71  1  0.83340000  0.52970000  0.77080000  1.0
  H  H72  1  0.87660000  0.76260000  0.02640000  1.0
  H  H73  1  0.05210000  0.74790000  0.90120000  1.0
  H  H74  1  0.22000000  0.53590000  0.76640000  1.0
  H  H75  1  0.26530000  0.75550000  0.02840000  1.0
  H  H76  1  0.72700000  0.60720000  0.02380000  1.0
  H  H77  1  0.33240000  0.53980000  0.88690000  1.0
  H  H78  1  0.19800000  0.44970000  0.77230000  1.0
  H  H79  1  0.85090000  0.47840000  0.70480000  1.0
  H  H80  1  0.92520000  0.81590000  0.09180000  1.0
  H  H81  1  0.22570000  0.71740000  0.10320000  1.0
  H  H82  1  0.86560000  0.59430000  0.08870000  1.0
  H  H83  1  0.18520000  0.48920000  0.86250000  1.0
  H  H84  1  0.19530000  0.36850000  0.74030000  1.0
  H  H85  1  0.84320000  0.39640000  0.67570000  1.0
  H  H86  1  0.94710000  0.82710000  0.17630000  1.0
  H  H87  1  0.24050000  0.72810000  0.18660000  1.0
  C  C88  1  0.29260000  0.87824000  0.31289000  1.0
  C  C89  1  0.31430000  0.75369000  0.43105000  1.0
  C  C90  1  0.41400000  0.90324000  0.29691000  1.0
  C  C91  1  0.44400000  0.74665000  0.45940000  1.0
  C  C92  1  0.04160000  0.90870000  0.44196000  1.0
  C  C93  1  0.53110000  0.87712000  0.30512000  1.0
  C  C94  1  0.41230000  0.95273000  0.27647000  1.0
  C  C95  1  0.45270000  0.74030000  0.50982000  1.0
  C  C96  1  0.55640000  0.74998000  0.43510000  1.0
  C  C97  1  0.01940000  0.95690000  0.47180000  1.0
  C  C98  1  0.64500000  0.90036000  0.29302000  1.0
  C  C99  1  0.52620000  0.97482000  0.26510000  1.0
  C  C100  1  0.57010000  0.73838000  0.53471000  1.0
  C  C101  1  0.67750000  0.75018000  0.46177000  1.0
  C  C102  1  0.09670000  0.96300000  0.51650000  1.0
  C  C103  1  0.92460000  0.99340000  0.45530000  1.0
  C  C104  1  0.64180000  0.94856000  0.27381000  1.0
  C  C105  1  0.76950000  0.87165000  0.30436000  1.0
  C  C106  1  0.52490000  0.02623000  0.24391000  1.0
  C  C107  1  0.68430000  0.74440000  0.51082000  1.0
  C  C108  1  0.57800000  0.73300000  0.58914000  1.0
  C  C109  1  0.79690000  0.75715000  0.43435000  1.0
  C  C110  1  0.21670000  0.92400000  0.53970000  1.0
  C  C111  1  0.82410000  0.98940000  0.40600000  1.0
  C  C112  1  0.62510000  0.06070000  0.25265000  1.0
  C  C113  1  0.42000000  0.04390000  0.21327000  1.0
  C  C114  1  0.49040000  0.70140000  0.61061000  1.0
  C  C115  1  0.66880000  0.76020000  0.61760000  1.0
  C  C116  1  0.30670000  0.93430000  0.58350000  1.0
  C  C117  1  0.72980000  0.02330000  0.39200000  1.0
  C  C118  1  0.62390000  0.10970000  0.23399000  1.0
  C  C119  1  0.41580000  0.09290000  0.19536000  1.0
  C  C120  1  0.50150000  0.69580000  0.66130000  1.0
  C  C121  1  0.67610000  0.75440000  0.66769000  1.0
  C  C122  1  0.51530000  0.12624000  0.20570000  1.0
  C  C123  1  0.59220000  0.72400000  0.68924000  1.0
  C  C124  1  0.50960000  0.17977000  0.18654000  1.0
  C  C125  1  0.59620000  0.71620000  0.74322000  1.0
  C  C126  1  0.20740000  0.37824000  0.18711000  1.0
  C  C127  1  0.18570000  0.25369000  0.06895000  1.0
  C  C128  1  0.08600000  0.40324000  0.20309000  1.0
  C  C129  1  0.05600000  0.24665000  0.04060000  1.0
  C  C130  1  0.45840000  0.40870000  0.05804000  1.0
  C  C131  1  0.96890000  0.37712000  0.19488000  1.0
  C  C132  1  0.08770000  0.45273000  0.22353000  1.0
  C  C133  1  0.04730000  0.24030000  0.99018000  1.0
  C  C134  1  0.94360000  0.24998000  0.06490000  1.0
  C  C135  1  0.48060000  0.45690000  0.02820000  1.0
  C  C136  1  0.85500000  0.40036000  0.20698000  1.0
  C  C137  1  0.97380000  0.47482000  0.23490000  1.0
  C  C138  1  0.92990000  0.23838000  0.96529000  1.0
  C  C139  1  0.82250000  0.25018000  0.03823000  1.0
  C  C140  1  0.40330000  0.46300000  0.98350000  1.0
  C  C141  1  0.57540000  0.49340000  0.04470000  1.0
  C  C142  1  0.85820000  0.44856000  0.22619000  1.0
  C  C143  1  0.73050000  0.37165000  0.19564000  1.0
  C  C144  1  0.97510000  0.52623000  0.25609000  1.0
  C  C145  1  0.81570000  0.24440000  0.98918000  1.0
  C  C146  1  0.92200000  0.23300000  0.91086000  1.0
  C  C147  1  0.70310000  0.25715000  0.06565000  1.0
  C  C148  1  0.28330000  0.42400000  0.96030000  1.0
  C  C149  1  0.67590000  0.48940000  0.09400000  1.0
  C  C150  1  0.87490000  0.56070000  0.24735000  1.0
  C  C151  1  0.08000000  0.54390000  0.28673000  1.0
  C  C152  1  0.00960000  0.20140000  0.88939000  1.0
  C  C153  1  0.83120000  0.26020000  0.88240000  1.0
  C  C154  1  0.19330000  0.43430000  0.91650000  1.0
  C  C155  1  0.77020000  0.52330000  0.10800000  1.0
  C  C156  1  0.87610000  0.60970000  0.26601000  1.0
  C  C157  1  0.08420000  0.59290000  0.30464000  1.0
  C  C158  1  0.99850000  0.19580000  0.83870000  1.0
  C  C159  1  0.82390000  0.25440000  0.83231000  1.0
  C  C160  1  0.98470000  0.62624000  0.29430000  1.0
  C  C161  1  0.90780000  0.22400000  0.81076000  1.0
  C  C162  1  0.99040000  0.67977000  0.31346000  1.0
  C  C163  1  0.90380000  0.21620000  0.75678000  1.0
  C  C164  1  0.70740000  0.12176000  0.68711000  1.0
  C  C165  1  0.68570000  0.24631000  0.56895000  1.0
  C  C166  1  0.58600000  0.09676000  0.70309000  1.0
  C  C167  1  0.55600000  0.25335000  0.54060000  1.0
  C  C168  1  0.95840000  0.09130000  0.55804000  1.0
  C  C169  1  0.46890000  0.12288000  0.69488000  1.0
  C  C170  1  0.58770000  0.04727000  0.72353000  1.0
  C  C171  1  0.54730000  0.25970000  0.49018000  1.0
  C  C172  1  0.44360000  0.25002000  0.56490000  1.0
  C  C173  1  0.98060000  0.04310000  0.52820000  1.0
  C  C174  1  0.35500000  0.09964000  0.70698000  1.0
  C  C175  1  0.47380000  0.02518000  0.73490000  1.0
  C  C176  1  0.42990000  0.26162000  0.46529000  1.0
  C  C177  1  0.32250000  0.24982000  0.53823000  1.0
  C  C178  1  0.90330000  0.03700000  0.48350000  1.0
  C  C179  1  0.07540000  0.00660000  0.54470000  1.0
  C  C180  1  0.35820000  0.05144000  0.72619000  1.0
  C  C181  1  0.23050000  0.12835000  0.69564000  1.0
  C  C182  1  0.47510000  0.97377000  0.75609000  1.0
  C  C183  1  0.31570000  0.25560000  0.48918000  1.0
  C  C184  1  0.42200000  0.26700000  0.41086000  1.0
  C  C185  1  0.20310000  0.24285000  0.56565000  1.0
  C  C186  1  0.78330000  0.07600000  0.46030000  1.0
  C  C187  1  0.17590000  0.01060000  0.59400000  1.0
  C  C188  1  0.37490000  0.93930000  0.74735000  1.0
  C  C189  1  0.58000000  0.95610000  0.78673000  1.0
  C  C190  1  0.50960000  0.29860000  0.38939000  1.0
  C  C191  1  0.33120000  0.23980000  0.38240000  1.0
  C  C192  1  0.69330000  0.06570000  0.41650000  1.0
  C  C193  1  0.27020000  0.97670000  0.60800000  1.0
  C  C194  1  0.37610000  0.89030000  0.76601000  1.0
  C  C195  1  0.58420000  0.90710000  0.80464000  1.0
  C  C196  1  0.49850000  0.30420000  0.33870000  1.0
  C  C197  1  0.32390000  0.24560000  0.33231000  1.0
  C  C198  1  0.48470000  0.87376000  0.79430000  1.0
  C  C199  1  0.40780000  0.27600000  0.31076000  1.0
  C  C200  1  0.49040000  0.82023000  0.81346000  1.0
  C  C201  1  0.40380000  0.28380000  0.25678000  1.0
  C  C202  1  0.79260000  0.62176000  0.81289000  1.0
  C  C203  1  0.81430000  0.74631000  0.93105000  1.0
  C  C204  1  0.91400000  0.59676000  0.79691000  1.0
  C  C205  1  0.94400000  0.75335000  0.95940000  1.0
  C  C206  1  0.54160000  0.59130000  0.94196000  1.0
  C  C207  1  0.03110000  0.62288000  0.80512000  1.0
  C  C208  1  0.91230000  0.54727000  0.77647000  1.0
  C  C209  1  0.95270000  0.75970000  0.00982000  1.0
  C  C210  1  0.05640000  0.75002000  0.93510000  1.0
  C  C211  1  0.51940000  0.54310000  0.97180000  1.0
  C  C212  1  0.14500000  0.59964000  0.79302000  1.0
  C  C213  1  0.02620000  0.52518000  0.76510000  1.0
  C  C214  1  0.07010000  0.76162000  0.03471000  1.0
  C  C215  1  0.17750000  0.74982000  0.96177000  1.0
  C  C216  1  0.59670000  0.53700000  0.01650000  1.0
  C  C217  1  0.42460000  0.50660000  0.95530000  1.0
  C  C218  1  0.14180000  0.55144000  0.77381000  1.0
  C  C219  1  0.26950000  0.62835000  0.80436000  1.0
  C  C220  1  0.02490000  0.47377000  0.74391000  1.0
  C  C221  1  0.18430000  0.75560000  0.01082000  1.0
  C  C222  1  0.07800000  0.76700000  0.08914000  1.0
  C  C223  1  0.29690000  0.74285000  0.93435000  1.0
  C  C224  1  0.71670000  0.57600000  0.03970000  1.0
  C  C225  1  0.32410000  0.51060000  0.90600000  1.0
  C  C226  1  0.12510000  0.43930000  0.75265000  1.0
  C  C227  1  0.92000000  0.45610000  0.71327000  1.0
  C  C228  1  0.99040000  0.79860000  0.11061000  1.0
  C  C229  1  0.16880000  0.73980000  0.11760000  1.0
  C  C230  1  0.80670000  0.56570000  0.08350000  1.0
  C  C231  1  0.22980000  0.47670000  0.89200000  1.0
  C  C232  1  0.12390000  0.39030000  0.73399000  1.0
  C  C233  1  0.91580000  0.40710000  0.69536000  1.0
  C  C234  1  0.00150000  0.80420000  0.16130000  1.0
  C  C235  1  0.17610000  0.74560000  0.16769000  1.0
  C  C236  1  0.01530000  0.37376000  0.70570000  1.0
  C  C237  1  0.09220000  0.77600000  0.18924000  1.0
  C  C238  1  0.00960000  0.32023000  0.68654000  1.0
  C  C239  1  0.09620000  0.78380000  0.24322000  1.0
  O  O240  1  0.04050000  0.80457000  0.36387000  1.0
  O  O241  1  0.30220000  0.83548000  0.33288000  1.0
  O  O242  1  0.31080000  0.74510000  0.38713000  1.0
  O  O243  1  0.08800000  0.69412000  0.33786000  1.0
  O  O244  1  0.18770000  0.75894000  0.26649000  1.0
  O  O245  1  0.75920000  0.82370000  0.30962000  1.0
  O  O246  1  0.89070000  0.70771000  0.30199000  1.0
  O  O247  1  0.78490000  0.75318000  0.39038000  1.0
  O  O248  1  0.21950000  0.76708000  0.45508000  1.0
  O  O249  1  0.05590000  0.86875000  0.46252000  1.0
  O  O250  1  0.90170000  0.76816000  0.45928000  1.0
  O  O251  1  0.18600000  0.90404000  0.30647000  1.0
  O  O252  1  0.04160000  0.91755000  0.39772000  1.0
  O  O253  1  0.87240000  0.89784000  0.30829000  1.0
  O  O254  1  0.51330000  0.69210000  0.76142000  1.0
  O  O255  1  0.45950000  0.30457000  0.13613000  1.0
  O  O256  1  0.19780000  0.33548000  0.16712000  1.0
  O  O257  1  0.18920000  0.24510000  0.11287000  1.0
  O  O258  1  0.41200000  0.19412000  0.16214000  1.0
  O  O259  1  0.31230000  0.25894000  0.23351000  1.0
  O  O260  1  0.74080000  0.32370000  0.19038000  1.0
  O  O261  1  0.60930000  0.20771000  0.19801000  1.0
  O  O262  1  0.71510000  0.25318000  0.10962000  1.0
  O  O263  1  0.28050000  0.26708000  0.04492000  1.0
  O  O264  1  0.44410000  0.36875000  0.03748000  1.0
  O  O265  1  0.59830000  0.26816000  0.04072000  1.0
  O  O266  1  0.31400000  0.40404000  0.19353000  1.0
  O  O267  1  0.45840000  0.41755000  0.10228000  1.0
  O  O268  1  0.62760000  0.39784000  0.19171000  1.0
  O  O269  1  0.98670000  0.19210000  0.73858000  1.0
  O  O270  1  0.95950000  0.19543000  0.63613000  1.0
  O  O271  1  0.69780000  0.16452000  0.66712000  1.0
  O  O272  1  0.68920000  0.25490000  0.61287000  1.0
  O  O273  1  0.91200000  0.30588000  0.66214000  1.0
  O  O274  1  0.81230000  0.24106000  0.73351000  1.0
  O  O275  1  0.24080000  0.17630000  0.69038000  1.0
  O  O276  1  0.10930000  0.29229000  0.69801000  1.0
  O  O277  1  0.21510000  0.24682000  0.60962000  1.0
  O  O278  1  0.78050000  0.23292000  0.54492000  1.0
  O  O279  1  0.94410000  0.13125000  0.53748000  1.0
  O  O280  1  0.09830000  0.23184000  0.54072000  1.0
  O  O281  1  0.81400000  0.09596000  0.69353000  1.0
  O  O282  1  0.95840000  0.08245000  0.60228000  1.0
  O  O283  1  0.12760000  0.10216000  0.69171000  1.0
  O  O284  1  0.48670000  0.30790000  0.23858000  1.0
  O  O285  1  0.54050000  0.69543000  0.86387000  1.0
  O  O286  1  0.80220000  0.66452000  0.83288000  1.0
  O  O287  1  0.81080000  0.75490000  0.88713000  1.0
  O  O288  1  0.58800000  0.80588000  0.83786000  1.0
  O  O289  1  0.68770000  0.74106000  0.76649000  1.0
  O  O290  1  0.25920000  0.67630000  0.80962000  1.0
  O  O291  1  0.39070000  0.79229000  0.80199000  1.0
  O  O292  1  0.28490000  0.74682000  0.89038000  1.0
  O  O293  1  0.71950000  0.73292000  0.95508000  1.0
  O  O294  1  0.55590000  0.63125000  0.96252000  1.0
  O  O295  1  0.40170000  0.73184000  0.95928000  1.0
  O  O296  1  0.68600000  0.59596000  0.80647000  1.0
  O  O297  1  0.54160000  0.58245000  0.89772000  1.0
  O  O298  1  0.37240000  0.60216000  0.80829000  1.0
  O  O299  1  0.01330000  0.80790000  0.26142000  1.0
