# generated using pymatgen
data_CuSiH10W12C12(NO8)4
_symmetry_space_group_name_H-M   'P 1'
_cell_length_a   24.68030000
_cell_length_b   10.59660000
_cell_length_c   19.98250000
_cell_angle_alpha   90.00000000
_cell_angle_beta   99.51500000
_cell_angle_gamma   90.00000000
_symmetry_Int_Tables_number   1
_chemical_formula_structural   CuSiH10W12C12(NO8)4
_chemical_formula_sum   'Cu4 Si4 H40 W48 C48 N16 O128'
_cell_volume   5154.07160912
_cell_formula_units_Z   4
loop_
 _symmetry_equiv_pos_site_id
 _symmetry_equiv_pos_as_xyz
  1  'x, y, z'
loop_
 _atom_site_type_symbol
 _atom_site_label
 _atom_site_symmetry_multiplicity
 _atom_site_fract_x
 _atom_site_fract_y
 _atom_site_fract_z
 _atom_site_occupancy
  Cu  Cu0  1  0.50000000  0.50000000  0.00000000  1.0
  Cu  Cu1  1  0.00000000  0.00000000  0.00000000  1.0
  Cu  Cu2  1  0.50000000  0.50000000  0.50000000  1.0
  Cu  Cu3  1  0.00000000  0.00000000  0.50000000  1.0
  Si  Si4  1  0.50000000  0.00000000  0.75000000  1.0
  Si  Si5  1  0.00000000  0.50000000  0.75000000  1.0
  Si  Si6  1  0.50000000  0.00000000  0.25000000  1.0
  Si  Si7  1  0.00000000  0.50000000  0.25000000  1.0
  H  H8  1  0.59790000  0.29950000  0.01860000  1.0
  H  H9  1  0.68040000  0.55350000  0.92620000  1.0
  H  H10  1  0.58840000  0.64150000  0.93190000  1.0
  H  H11  1  0.68270000  0.22170000  0.06620000  1.0
  H  H12  1  0.73800000  0.39770000  0.91330000  1.0
  H  H13  1  0.09790000  0.79950000  0.01860000  1.0
  H  H14  1  0.18040000  0.05350000  0.92620000  1.0
  H  H15  1  0.08840000  0.14150000  0.93190000  1.0
  H  H16  1  0.18270000  0.72170000  0.06620000  1.0
  H  H17  1  0.23800000  0.89770000  0.91330000  1.0
  H  H18  1  0.40210000  0.29950000  0.48140000  1.0
  H  H19  1  0.31960000  0.55350000  0.57380000  1.0
  H  H20  1  0.41160000  0.64150000  0.56810000  1.0
  H  H21  1  0.31730000  0.22170000  0.43380000  1.0
  H  H22  1  0.26200000  0.39770000  0.58670000  1.0
  H  H23  1  0.90210000  0.79950000  0.48140000  1.0
  H  H24  1  0.81960000  0.05350000  0.57380000  1.0
  H  H25  1  0.91160000  0.14150000  0.56810000  1.0
  H  H26  1  0.81730000  0.72170000  0.43380000  1.0
  H  H27  1  0.76200000  0.89770000  0.58670000  1.0
  H  H28  1  0.40210000  0.70050000  0.98140000  1.0
  H  H29  1  0.31960000  0.44650000  0.07380000  1.0
  H  H30  1  0.41160000  0.35850000  0.06810000  1.0
  H  H31  1  0.31730000  0.77830000  0.93380000  1.0
  H  H32  1  0.26200000  0.60230000  0.08670000  1.0
  H  H33  1  0.90210000  0.20050000  0.98140000  1.0
  H  H34  1  0.81960000  0.94650000  0.07380000  1.0
  H  H35  1  0.91160000  0.85850000  0.06810000  1.0
  H  H36  1  0.81730000  0.27830000  0.93380000  1.0
  H  H37  1  0.76200000  0.10230000  0.08670000  1.0
  H  H38  1  0.59790000  0.70050000  0.51860000  1.0
  H  H39  1  0.68040000  0.44650000  0.42620000  1.0
  H  H40  1  0.58840000  0.35850000  0.43190000  1.0
  H  H41  1  0.68270000  0.77830000  0.56620000  1.0
  H  H42  1  0.73800000  0.60230000  0.41330000  1.0
  H  H43  1  0.09790000  0.20050000  0.51860000  1.0
  H  H44  1  0.18040000  0.94650000  0.42620000  1.0
  H  H45  1  0.08840000  0.85850000  0.43190000  1.0
  H  H46  1  0.18270000  0.27830000  0.56620000  1.0
  H  H47  1  0.23800000  0.10230000  0.41330000  1.0
  W  W48  1  0.39665000  0.77149000  0.71032000  1.0
  W  W49  1  0.38151000  0.98954000  0.82811000  1.0
  W  W50  1  0.48530000  0.24111000  0.86776000  1.0
  W  W51  1  0.39832000  0.22945000  0.69858000  1.0
  W  W52  1  0.47565000  0.75997000  0.86331000  1.0
  W  W53  1  0.42312000  0.01187000  0.58521000  1.0
  W  W54  1  0.89665000  0.27149000  0.71032000  1.0
  W  W55  1  0.88151000  0.48954000  0.82811000  1.0
  W  W56  1  0.98530000  0.74111000  0.86776000  1.0
  W  W57  1  0.89832000  0.72945000  0.69858000  1.0
  W  W58  1  0.97565000  0.25997000  0.86331000  1.0
  W  W59  1  0.92312000  0.51187000  0.58521000  1.0
  W  W60  1  0.60335000  0.77149000  0.78968000  1.0
  W  W61  1  0.61849000  0.98954000  0.67189000  1.0
  W  W62  1  0.51470000  0.24111000  0.63224000  1.0
  W  W63  1  0.60168000  0.22945000  0.80142000  1.0
  W  W64  1  0.52435000  0.75997000  0.63669000  1.0
  W  W65  1  0.57688000  0.01187000  0.91479000  1.0
  W  W66  1  0.10335000  0.27149000  0.78968000  1.0
  W  W67  1  0.11849000  0.48954000  0.67189000  1.0
  W  W68  1  0.01470000  0.74111000  0.63224000  1.0
  W  W69  1  0.10168000  0.72945000  0.80142000  1.0
  W  W70  1  0.02435000  0.25997000  0.63669000  1.0
  W  W71  1  0.07688000  0.51187000  0.91479000  1.0
  W  W72  1  0.60335000  0.22851000  0.28968000  1.0
  W  W73  1  0.61849000  0.01046000  0.17189000  1.0
  W  W74  1  0.51470000  0.75889000  0.13224000  1.0
  W  W75  1  0.60168000  0.77055000  0.30142000  1.0
  W  W76  1  0.52435000  0.24003000  0.13669000  1.0
  W  W77  1  0.57688000  0.98813000  0.41479000  1.0
  W  W78  1  0.10335000  0.72851000  0.28968000  1.0
  W  W79  1  0.11849000  0.51046000  0.17189000  1.0
  W  W80  1  0.01470000  0.25889000  0.13224000  1.0
  W  W81  1  0.10168000  0.27055000  0.30142000  1.0
  W  W82  1  0.02435000  0.74003000  0.13669000  1.0
  W  W83  1  0.07688000  0.48813000  0.41479000  1.0
  W  W84  1  0.39665000  0.22851000  0.21032000  1.0
  W  W85  1  0.38151000  0.01046000  0.32811000  1.0
  W  W86  1  0.48530000  0.75889000  0.36776000  1.0
  W  W87  1  0.39832000  0.77055000  0.19858000  1.0
  W  W88  1  0.47565000  0.24003000  0.36331000  1.0
  W  W89  1  0.42312000  0.98813000  0.08521000  1.0
  W  W90  1  0.89665000  0.72851000  0.21032000  1.0
  W  W91  1  0.88151000  0.51046000  0.32811000  1.0
  W  W92  1  0.98530000  0.25889000  0.36776000  1.0
  W  W93  1  0.89832000  0.27055000  0.19858000  1.0
  W  W94  1  0.97565000  0.74003000  0.36331000  1.0
  W  W95  1  0.92312000  0.48813000  0.08521000  1.0
  C  C96  1  0.60680000  0.37230000  0.99680000  1.0
  C  C97  1  0.65290000  0.51410000  0.94510000  1.0
  C  C98  1  0.60150000  0.56320000  0.94830000  1.0
  C  C99  1  0.70990000  0.23280000  0.03960000  1.0
  C  C100  1  0.70280000  0.32050000  0.98780000  1.0
  C  C101  1  0.74290000  0.33800000  0.94800000  1.0
  C  C102  1  0.10680000  0.87230000  0.99680000  1.0
  C  C103  1  0.15290000  0.01410000  0.94510000  1.0
  C  C104  1  0.10150000  0.06320000  0.94830000  1.0
  C  C105  1  0.20990000  0.73280000  0.03960000  1.0
  C  C106  1  0.20280000  0.82050000  0.98780000  1.0
  C  C107  1  0.24290000  0.83800000  0.94800000  1.0
  C  C108  1  0.39320000  0.37230000  0.50320000  1.0
  C  C109  1  0.34710000  0.51410000  0.55490000  1.0
  C  C110  1  0.39850000  0.56320000  0.55170000  1.0
  C  C111  1  0.29010000  0.23280000  0.46040000  1.0
  C  C112  1  0.29720000  0.32050000  0.51220000  1.0
  C  C113  1  0.25710000  0.33800000  0.55200000  1.0
  C  C114  1  0.89320000  0.87230000  0.50320000  1.0
  C  C115  1  0.84710000  0.01410000  0.55490000  1.0
  C  C116  1  0.89850000  0.06320000  0.55170000  1.0
  C  C117  1  0.79010000  0.73280000  0.46040000  1.0
  C  C118  1  0.79720000  0.82050000  0.51220000  1.0
  C  C119  1  0.75710000  0.83800000  0.55200000  1.0
  C  C120  1  0.39320000  0.62770000  0.00320000  1.0
  C  C121  1  0.34710000  0.48590000  0.05490000  1.0
  C  C122  1  0.39850000  0.43680000  0.05170000  1.0
  C  C123  1  0.29010000  0.76720000  0.96040000  1.0
  C  C124  1  0.29720000  0.67950000  0.01220000  1.0
  C  C125  1  0.25710000  0.66200000  0.05200000  1.0
  C  C126  1  0.89320000  0.12770000  0.00320000  1.0
  C  C127  1  0.84710000  0.98590000  0.05490000  1.0
  C  C128  1  0.89850000  0.93680000  0.05170000  1.0
  C  C129  1  0.79010000  0.26720000  0.96040000  1.0
  C  C130  1  0.79720000  0.17950000  0.01220000  1.0
  C  C131  1  0.75710000  0.16200000  0.05200000  1.0
  C  C132  1  0.60680000  0.62770000  0.49680000  1.0
  C  C133  1  0.65290000  0.48590000  0.44510000  1.0
  C  C134  1  0.60150000  0.43680000  0.44830000  1.0
  C  C135  1  0.70990000  0.76720000  0.53960000  1.0
  C  C136  1  0.70280000  0.67950000  0.48780000  1.0
  C  C137  1  0.74290000  0.66200000  0.44800000  1.0
  C  C138  1  0.10680000  0.12770000  0.49680000  1.0
  C  C139  1  0.15290000  0.98590000  0.44510000  1.0
  C  C140  1  0.10150000  0.93680000  0.44830000  1.0
  C  C141  1  0.20990000  0.26720000  0.53960000  1.0
  C  C142  1  0.20280000  0.17950000  0.48780000  1.0
  C  C143  1  0.24290000  0.16200000  0.44800000  1.0
  N  N144  1  0.57300000  0.47560000  0.98030000  1.0
  N  N145  1  0.65620000  0.39610000  0.97510000  1.0
  N  N146  1  0.07300000  0.97560000  0.98030000  1.0
  N  N147  1  0.15620000  0.89610000  0.97510000  1.0
  N  N148  1  0.42700000  0.47560000  0.51970000  1.0
  N  N149  1  0.34380000  0.39610000  0.52490000  1.0
  N  N150  1  0.92700000  0.97560000  0.51970000  1.0
  N  N151  1  0.84380000  0.89610000  0.52490000  1.0
  N  N152  1  0.42700000  0.52440000  0.01970000  1.0
  N  N153  1  0.34380000  0.60390000  0.02490000  1.0
  N  N154  1  0.92700000  0.02440000  0.01970000  1.0
  N  N155  1  0.84380000  0.10390000  0.02490000  1.0
  N  N156  1  0.57300000  0.52440000  0.48030000  1.0
  N  N157  1  0.65620000  0.60390000  0.47510000  1.0
  N  N158  1  0.07300000  0.02440000  0.48030000  1.0
  N  N159  1  0.15620000  0.10390000  0.47510000  1.0
  O  O160  1  0.45580000  0.90770000  0.77820000  1.0
  O  O161  1  0.37570000  0.13890000  0.61720000  1.0
  O  O162  1  0.52980000  0.08700000  0.81030000  1.0
  O  O163  1  0.54900000  0.31470000  0.84740000  1.0
  O  O164  1  0.35130000  0.85810000  0.76130000  1.0
  O  O165  1  0.37270000  0.10230000  0.75070000  1.0
  O  O166  1  0.53680000  0.72180000  0.82140000  1.0
  O  O167  1  0.42710000  0.68140000  0.79360000  1.0
  O  O168  1  0.46830000  0.14190000  0.56310000  1.0
  O  O169  1  0.41300000  0.85370000  0.88410000  1.0
  O  O170  1  0.44430000  0.27830000  0.78230000  1.0
  O  O171  1  0.52000000  0.89170000  0.90860000  1.0
  O  O172  1  0.43180000  0.10840000  0.87220000  1.0
  O  O173  1  0.39100000  0.89580000  0.64540000  1.0
  O  O174  1  0.46420000  0.35510000  0.92050000  1.0
  O  O175  1  0.48030000  0.64540000  0.92400000  1.0
  O  O176  1  0.95580000  0.40770000  0.77820000  1.0
  O  O177  1  0.87570000  0.63890000  0.61720000  1.0
  O  O178  1  0.02980000  0.58700000  0.81030000  1.0
  O  O179  1  0.04900000  0.81470000  0.84740000  1.0
  O  O180  1  0.85130000  0.35810000  0.76130000  1.0
  O  O181  1  0.87270000  0.60230000  0.75070000  1.0
  O  O182  1  0.03680000  0.22180000  0.82140000  1.0
  O  O183  1  0.92710000  0.18140000  0.79360000  1.0
  O  O184  1  0.96830000  0.64190000  0.56310000  1.0
  O  O185  1  0.91300000  0.35370000  0.88410000  1.0
  O  O186  1  0.94430000  0.77830000  0.78230000  1.0
  O  O187  1  0.02000000  0.39170000  0.90860000  1.0
  O  O188  1  0.93180000  0.60840000  0.87220000  1.0
  O  O189  1  0.89100000  0.39580000  0.64540000  1.0
  O  O190  1  0.96420000  0.85510000  0.92050000  1.0
  O  O191  1  0.98030000  0.14540000  0.92400000  1.0
  O  O192  1  0.54420000  0.90770000  0.72180000  1.0
  O  O193  1  0.62430000  0.13890000  0.88280000  1.0
  O  O194  1  0.47020000  0.08700000  0.68970000  1.0
  O  O195  1  0.45100000  0.31470000  0.65260000  1.0
  O  O196  1  0.64870000  0.85810000  0.73870000  1.0
  O  O197  1  0.62730000  0.10230000  0.74930000  1.0
  O  O198  1  0.46320000  0.72180000  0.67860000  1.0
  O  O199  1  0.57290000  0.68140000  0.70640000  1.0
  O  O200  1  0.53170000  0.14190000  0.93690000  1.0
  O  O201  1  0.58700000  0.85370000  0.61590000  1.0
  O  O202  1  0.55570000  0.27830000  0.71770000  1.0
  O  O203  1  0.48000000  0.89170000  0.59140000  1.0
  O  O204  1  0.56820000  0.10840000  0.62780000  1.0
  O  O205  1  0.60900000  0.89580000  0.85460000  1.0
  O  O206  1  0.53580000  0.35510000  0.57950000  1.0
  O  O207  1  0.51970000  0.64540000  0.57600000  1.0
  O  O208  1  0.04420000  0.40770000  0.72180000  1.0
  O  O209  1  0.12430000  0.63890000  0.88280000  1.0
  O  O210  1  0.97020000  0.58700000  0.68970000  1.0
  O  O211  1  0.95100000  0.81470000  0.65260000  1.0
  O  O212  1  0.14870000  0.35810000  0.73870000  1.0
  O  O213  1  0.12730000  0.60230000  0.74930000  1.0
  O  O214  1  0.96320000  0.22180000  0.67860000  1.0
  O  O215  1  0.07290000  0.18140000  0.70640000  1.0
  O  O216  1  0.03170000  0.64190000  0.93690000  1.0
  O  O217  1  0.08700000  0.35370000  0.61590000  1.0
  O  O218  1  0.05570000  0.77830000  0.71770000  1.0
  O  O219  1  0.98000000  0.39170000  0.59140000  1.0
  O  O220  1  0.06820000  0.60840000  0.62780000  1.0
  O  O221  1  0.10900000  0.39580000  0.85460000  1.0
  O  O222  1  0.03580000  0.85510000  0.57950000  1.0
  O  O223  1  0.01970000  0.14540000  0.57600000  1.0
  O  O224  1  0.54420000  0.09230000  0.22180000  1.0
  O  O225  1  0.62430000  0.86110000  0.38280000  1.0
  O  O226  1  0.47020000  0.91300000  0.18970000  1.0
  O  O227  1  0.45100000  0.68530000  0.15260000  1.0
  O  O228  1  0.64870000  0.14190000  0.23870000  1.0
  O  O229  1  0.62730000  0.89770000  0.24930000  1.0
  O  O230  1  0.46320000  0.27820000  0.17860000  1.0
  O  O231  1  0.57290000  0.31860000  0.20640000  1.0
  O  O232  1  0.53170000  0.85810000  0.43690000  1.0
  O  O233  1  0.58700000  0.14630000  0.11590000  1.0
  O  O234  1  0.55570000  0.72170000  0.21770000  1.0
  O  O235  1  0.48000000  0.10830000  0.09140000  1.0
  O  O236  1  0.56820000  0.89160000  0.12780000  1.0
  O  O237  1  0.60900000  0.10420000  0.35460000  1.0
  O  O238  1  0.53580000  0.64490000  0.07950000  1.0
  O  O239  1  0.51970000  0.35460000  0.07600000  1.0
  O  O240  1  0.04420000  0.59230000  0.22180000  1.0
  O  O241  1  0.12430000  0.36110000  0.38280000  1.0
  O  O242  1  0.97020000  0.41300000  0.18970000  1.0
  O  O243  1  0.95100000  0.18530000  0.15260000  1.0
  O  O244  1  0.14870000  0.64190000  0.23870000  1.0
  O  O245  1  0.12730000  0.39770000  0.24930000  1.0
  O  O246  1  0.96320000  0.77820000  0.17860000  1.0
  O  O247  1  0.07290000  0.81860000  0.20640000  1.0
  O  O248  1  0.03170000  0.35810000  0.43690000  1.0
  O  O249  1  0.08700000  0.64630000  0.11590000  1.0
  O  O250  1  0.05570000  0.22170000  0.21770000  1.0
  O  O251  1  0.98000000  0.60830000  0.09140000  1.0
  O  O252  1  0.06820000  0.39160000  0.12780000  1.0
  O  O253  1  0.10900000  0.60420000  0.35460000  1.0
  O  O254  1  0.03580000  0.14490000  0.07950000  1.0
  O  O255  1  0.01970000  0.85460000  0.07600000  1.0
  O  O256  1  0.45580000  0.09230000  0.27820000  1.0
  O  O257  1  0.37570000  0.86110000  0.11720000  1.0
  O  O258  1  0.52980000  0.91300000  0.31030000  1.0
  O  O259  1  0.54900000  0.68530000  0.34740000  1.0
  O  O260  1  0.35130000  0.14190000  0.26130000  1.0
  O  O261  1  0.37270000  0.89770000  0.25070000  1.0
  O  O262  1  0.53680000  0.27820000  0.32140000  1.0
  O  O263  1  0.42710000  0.31860000  0.29360000  1.0
  O  O264  1  0.46830000  0.85810000  0.06310000  1.0
  O  O265  1  0.41300000  0.14630000  0.38410000  1.0
  O  O266  1  0.44430000  0.72170000  0.28230000  1.0
  O  O267  1  0.52000000  0.10830000  0.40860000  1.0
  O  O268  1  0.43180000  0.89160000  0.37220000  1.0
  O  O269  1  0.39100000  0.10420000  0.14540000  1.0
  O  O270  1  0.46420000  0.64490000  0.42050000  1.0
  O  O271  1  0.48030000  0.35460000  0.42400000  1.0
  O  O272  1  0.95580000  0.59230000  0.27820000  1.0
  O  O273  1  0.87570000  0.36110000  0.11720000  1.0
  O  O274  1  0.02980000  0.41300000  0.31030000  1.0
  O  O275  1  0.04900000  0.18530000  0.34740000  1.0
  O  O276  1  0.85130000  0.64190000  0.26130000  1.0
  O  O277  1  0.87270000  0.39770000  0.25070000  1.0
  O  O278  1  0.03680000  0.77820000  0.32140000  1.0
  O  O279  1  0.92710000  0.81860000  0.29360000  1.0
  O  O280  1  0.96830000  0.35810000  0.06310000  1.0
  O  O281  1  0.91300000  0.64630000  0.38410000  1.0
  O  O282  1  0.94430000  0.22170000  0.28230000  1.0
  O  O283  1  0.02000000  0.60830000  0.40860000  1.0
  O  O284  1  0.93180000  0.39160000  0.37220000  1.0
  O  O285  1  0.89100000  0.60420000  0.14540000  1.0
  O  O286  1  0.96420000  0.14490000  0.42050000  1.0
  O  O287  1  0.98030000  0.85460000  0.42400000  1.0
