# generated using pymatgen
data_ZnH11C18(NO2)2
_symmetry_space_group_name_H-M   'P 1'
_cell_length_a   27.84100000
_cell_length_b   7.52660000
_cell_length_c   17.41300000
_cell_angle_alpha   90.00000000
_cell_angle_beta   90.00000000
_cell_angle_gamma   90.00000000
_symmetry_Int_Tables_number   1
_chemical_formula_structural   ZnH11C18(NO2)2
_chemical_formula_sum   'Zn8 H88 C144 N16 O32'
_cell_volume   3648.86055336
_cell_formula_units_Z   8
loop_
 _symmetry_equiv_pos_site_id
 _symmetry_equiv_pos_as_xyz
  1  'x, y, z'
loop_
 _atom_site_type_symbol
 _atom_site_label
 _atom_site_symmetry_multiplicity
 _atom_site_fract_x
 _atom_site_fract_y
 _atom_site_fract_z
 _atom_site_occupancy
  Zn  Zn0  1  0.09747000  0.30632000  0.23386000  1.0
  Zn  Zn1  1  0.59747000  0.19368000  0.76614000  1.0
  Zn  Zn2  1  0.59747000  0.80632000  0.26614000  1.0
  Zn  Zn3  1  0.09747000  0.69368000  0.73386000  1.0
  Zn  Zn4  1  0.40253000  0.19368000  0.73386000  1.0
  Zn  Zn5  1  0.90253000  0.30632000  0.26614000  1.0
  Zn  Zn6  1  0.90253000  0.69368000  0.76614000  1.0
  Zn  Zn7  1  0.40253000  0.80632000  0.23386000  1.0
  H  H8  1  0.34830000  0.37260000  0.24110000  1.0
  H  H9  1  0.19590000  0.34490000  0.31390000  1.0
  H  H10  1  0.27600000  0.32830000  0.28220000  1.0
  H  H11  1  0.30640000  0.16190000  0.04020000  1.0
  H  H12  1  0.38520000  0.14870000  0.00260000  1.0
  H  H13  1  0.42660000  0.36000000  0.19880000  1.0
  H  H14  1  0.45270000  0.32290000  0.96650000  1.0
  H  H15  1  0.48600000  0.13450000  0.17620000  1.0
  H  H16  1  0.58680000  0.15310000  0.01090000  1.0
  H  H17  1  0.23750000  0.23450000  0.06470000  1.0
  H  H18  1  0.15900000  0.24570000  0.10190000  1.0
  H  H19  1  0.84830000  0.12740000  0.75890000  1.0
  H  H20  1  0.69590000  0.15510000  0.68610000  1.0
  H  H21  1  0.77600000  0.17170000  0.71780000  1.0
  H  H22  1  0.80640000  0.33810000  0.95980000  1.0
  H  H23  1  0.88520000  0.35130000  0.99740000  1.0
  H  H24  1  0.92660000  0.14000000  0.80120000  1.0
  H  H25  1  0.95270000  0.17710000  0.03350000  1.0
  H  H26  1  0.98600000  0.36550000  0.82380000  1.0
  H  H27  1  0.08680000  0.34690000  0.98910000  1.0
  H  H28  1  0.73750000  0.26550000  0.93530000  1.0
  H  H29  1  0.65900000  0.25430000  0.89810000  1.0
  H  H30  1  0.84830000  0.87260000  0.25890000  1.0
  H  H31  1  0.69590000  0.84490000  0.18610000  1.0
  H  H32  1  0.77600000  0.82830000  0.21780000  1.0
  H  H33  1  0.80640000  0.66190000  0.45980000  1.0
  H  H34  1  0.88520000  0.64870000  0.49740000  1.0
  H  H35  1  0.92660000  0.86000000  0.30120000  1.0
  H  H36  1  0.95270000  0.82290000  0.53350000  1.0
  H  H37  1  0.98600000  0.63450000  0.32380000  1.0
  H  H38  1  0.08680000  0.65310000  0.48910000  1.0
  H  H39  1  0.73750000  0.73450000  0.43530000  1.0
  H  H40  1  0.65900000  0.74570000  0.39810000  1.0
  H  H41  1  0.34830000  0.62740000  0.74110000  1.0
  H  H42  1  0.19590000  0.65510000  0.81390000  1.0
  H  H43  1  0.27600000  0.67170000  0.78220000  1.0
  H  H44  1  0.30640000  0.83810000  0.54020000  1.0
  H  H45  1  0.38520000  0.85130000  0.50260000  1.0
  H  H46  1  0.42660000  0.64000000  0.69880000  1.0
  H  H47  1  0.45270000  0.67710000  0.46650000  1.0
  H  H48  1  0.48600000  0.86550000  0.67620000  1.0
  H  H49  1  0.58680000  0.84690000  0.51090000  1.0
  H  H50  1  0.23750000  0.76550000  0.56470000  1.0
  H  H51  1  0.15900000  0.75430000  0.60190000  1.0
  H  H52  1  0.15170000  0.12740000  0.74110000  1.0
  H  H53  1  0.30410000  0.15510000  0.81390000  1.0
  H  H54  1  0.22400000  0.17170000  0.78220000  1.0
  H  H55  1  0.19360000  0.33810000  0.54020000  1.0
  H  H56  1  0.11480000  0.35130000  0.50260000  1.0
  H  H57  1  0.07340000  0.14000000  0.69880000  1.0
  H  H58  1  0.04730000  0.17710000  0.46650000  1.0
  H  H59  1  0.01400000  0.36550000  0.67620000  1.0
  H  H60  1  0.91320000  0.34690000  0.51090000  1.0
  H  H61  1  0.26250000  0.26550000  0.56470000  1.0
  H  H62  1  0.34100000  0.25430000  0.60190000  1.0
  H  H63  1  0.65170000  0.37260000  0.25890000  1.0
  H  H64  1  0.80410000  0.34490000  0.18610000  1.0
  H  H65  1  0.72400000  0.32830000  0.21780000  1.0
  H  H66  1  0.69360000  0.16190000  0.45980000  1.0
  H  H67  1  0.61480000  0.14870000  0.49740000  1.0
  H  H68  1  0.57340000  0.36000000  0.30120000  1.0
  H  H69  1  0.54730000  0.32290000  0.53350000  1.0
  H  H70  1  0.51400000  0.13450000  0.32380000  1.0
  H  H71  1  0.41320000  0.15310000  0.48910000  1.0
  H  H72  1  0.76250000  0.23450000  0.43530000  1.0
  H  H73  1  0.84100000  0.24570000  0.39810000  1.0
  H  H74  1  0.65170000  0.62740000  0.75890000  1.0
  H  H75  1  0.80410000  0.65510000  0.68610000  1.0
  H  H76  1  0.72400000  0.67170000  0.71780000  1.0
  H  H77  1  0.69360000  0.83810000  0.95980000  1.0
  H  H78  1  0.61480000  0.85130000  0.99740000  1.0
  H  H79  1  0.57340000  0.64000000  0.80120000  1.0
  H  H80  1  0.54730000  0.67710000  0.03350000  1.0
  H  H81  1  0.51400000  0.86550000  0.82380000  1.0
  H  H82  1  0.41320000  0.84690000  0.98910000  1.0
  H  H83  1  0.76250000  0.76550000  0.93530000  1.0
  H  H84  1  0.84100000  0.75430000  0.89810000  1.0
  H  H85  1  0.15170000  0.87260000  0.24110000  1.0
  H  H86  1  0.30410000  0.84490000  0.31390000  1.0
  H  H87  1  0.22400000  0.82830000  0.28220000  1.0
  H  H88  1  0.19360000  0.66190000  0.04020000  1.0
  H  H89  1  0.11480000  0.64870000  0.00260000  1.0
  H  H90  1  0.07340000  0.86000000  0.19880000  1.0
  H  H91  1  0.04730000  0.82290000  0.96650000  1.0
  H  H92  1  0.01400000  0.63450000  0.17620000  1.0
  H  H93  1  0.91320000  0.65310000  0.01090000  1.0
  H  H94  1  0.26250000  0.73450000  0.06470000  1.0
  H  H95  1  0.34100000  0.74570000  0.10190000  1.0
  C  C96  1  0.35514000  0.32730000  0.19260000  1.0
  C  C97  1  0.20439000  0.32130000  0.26320000  1.0
  C  C98  1  0.25278000  0.31210000  0.24440000  1.0
  C  C99  1  0.26655000  0.27850000  0.16920000  1.0
  C  C100  1  0.31773000  0.26760000  0.14510000  1.0
  C  C101  1  0.33032000  0.20150000  0.07340000  1.0
  C  C102  1  0.37750000  0.19380000  0.05070000  1.0
  C  C103  1  0.40207000  0.31870000  0.16730000  1.0
  C  C104  1  0.46285000  0.23350000  0.07460000  1.0
  C  C105  1  0.47528000  0.27530000  0.00010000  1.0
  C  C106  1  0.49534000  0.16180000  0.12630000  1.0
  C  C107  1  0.54223000  0.13160000  0.10200000  1.0
  C  C108  1  0.55543000  0.17330000  0.02710000  1.0
  C  C109  1  0.53638000  0.27650000  0.89310000  1.0
  C  C110  1  0.52233000  0.24460000  0.97620000  1.0
  C  C111  1  0.57699000  0.03220000  0.15290000  1.0
  C  C112  1  0.23003000  0.25560000  0.11590000  1.0
  C  C113  1  0.18276000  0.26400000  0.13850000  1.0
  C  C114  1  0.85514000  0.17270000  0.80740000  1.0
  C  C115  1  0.70439000  0.17870000  0.73680000  1.0
  C  C116  1  0.75278000  0.18790000  0.75560000  1.0
  C  C117  1  0.76655000  0.22150000  0.83080000  1.0
  C  C118  1  0.81773000  0.23240000  0.85490000  1.0
  C  C119  1  0.83032000  0.29850000  0.92660000  1.0
  C  C120  1  0.87750000  0.30620000  0.94930000  1.0
  C  C121  1  0.90207000  0.18130000  0.83270000  1.0
  C  C122  1  0.96285000  0.26650000  0.92540000  1.0
  C  C123  1  0.97528000  0.22470000  0.99990000  1.0
  C  C124  1  0.99534000  0.33820000  0.87370000  1.0
  C  C125  1  0.04223000  0.36840000  0.89800000  1.0
  C  C126  1  0.05543000  0.32670000  0.97290000  1.0
  C  C127  1  0.03638000  0.22350000  0.10690000  1.0
  C  C128  1  0.02233000  0.25540000  0.02380000  1.0
  C  C129  1  0.07699000  0.46780000  0.84710000  1.0
  C  C130  1  0.73003000  0.24440000  0.88410000  1.0
  C  C131  1  0.68276000  0.23600000  0.86150000  1.0
  C  C132  1  0.85514000  0.82730000  0.30740000  1.0
  C  C133  1  0.70439000  0.82130000  0.23680000  1.0
  C  C134  1  0.75278000  0.81210000  0.25560000  1.0
  C  C135  1  0.76655000  0.77850000  0.33080000  1.0
  C  C136  1  0.81773000  0.76760000  0.35490000  1.0
  C  C137  1  0.83032000  0.70150000  0.42660000  1.0
  C  C138  1  0.87750000  0.69380000  0.44930000  1.0
  C  C139  1  0.90207000  0.81870000  0.33270000  1.0
  C  C140  1  0.96285000  0.73350000  0.42540000  1.0
  C  C141  1  0.97528000  0.77530000  0.49990000  1.0
  C  C142  1  0.99534000  0.66180000  0.37370000  1.0
  C  C143  1  0.04223000  0.63160000  0.39800000  1.0
  C  C144  1  0.05543000  0.67330000  0.47290000  1.0
  C  C145  1  0.03638000  0.77650000  0.60690000  1.0
  C  C146  1  0.02233000  0.74460000  0.52380000  1.0
  C  C147  1  0.07699000  0.53220000  0.34710000  1.0
  C  C148  1  0.73003000  0.75560000  0.38410000  1.0
  C  C149  1  0.68276000  0.76400000  0.36150000  1.0
  C  C150  1  0.35514000  0.67270000  0.69260000  1.0
  C  C151  1  0.20439000  0.67870000  0.76320000  1.0
  C  C152  1  0.25278000  0.68790000  0.74440000  1.0
  C  C153  1  0.26655000  0.72150000  0.66920000  1.0
  C  C154  1  0.31773000  0.73240000  0.64510000  1.0
  C  C155  1  0.33032000  0.79850000  0.57340000  1.0
  C  C156  1  0.37750000  0.80620000  0.55070000  1.0
  C  C157  1  0.40207000  0.68130000  0.66730000  1.0
  C  C158  1  0.46285000  0.76650000  0.57460000  1.0
  C  C159  1  0.47528000  0.72470000  0.50010000  1.0
  C  C160  1  0.49534000  0.83820000  0.62630000  1.0
  C  C161  1  0.54223000  0.86840000  0.60200000  1.0
  C  C162  1  0.55543000  0.82670000  0.52710000  1.0
  C  C163  1  0.53638000  0.72350000  0.39310000  1.0
  C  C164  1  0.52233000  0.75540000  0.47620000  1.0
  C  C165  1  0.57699000  0.96780000  0.65290000  1.0
  C  C166  1  0.23003000  0.74440000  0.61590000  1.0
  C  C167  1  0.18276000  0.73600000  0.63850000  1.0
  C  C168  1  0.14486000  0.17270000  0.69260000  1.0
  C  C169  1  0.29561000  0.17870000  0.76320000  1.0
  C  C170  1  0.24722000  0.18790000  0.74440000  1.0
  C  C171  1  0.23345000  0.22150000  0.66920000  1.0
  C  C172  1  0.18227000  0.23240000  0.64510000  1.0
  C  C173  1  0.16968000  0.29850000  0.57340000  1.0
  C  C174  1  0.12250000  0.30620000  0.55070000  1.0
  C  C175  1  0.09793000  0.18130000  0.66730000  1.0
  C  C176  1  0.03715000  0.26650000  0.57460000  1.0
  C  C177  1  0.02472000  0.22470000  0.50010000  1.0
  C  C178  1  0.00466000  0.33820000  0.62630000  1.0
  C  C179  1  0.95777000  0.36840000  0.60200000  1.0
  C  C180  1  0.94457000  0.32670000  0.52710000  1.0
  C  C181  1  0.96362000  0.22350000  0.39310000  1.0
  C  C182  1  0.97767000  0.25540000  0.47620000  1.0
  C  C183  1  0.92301000  0.46780000  0.65290000  1.0
  C  C184  1  0.26997000  0.24440000  0.61590000  1.0
  C  C185  1  0.31724000  0.23600000  0.63850000  1.0
  C  C186  1  0.64486000  0.32730000  0.30740000  1.0
  C  C187  1  0.79561000  0.32130000  0.23680000  1.0
  C  C188  1  0.74722000  0.31210000  0.25560000  1.0
  C  C189  1  0.73345000  0.27850000  0.33080000  1.0
  C  C190  1  0.68227000  0.26760000  0.35490000  1.0
  C  C191  1  0.66968000  0.20150000  0.42660000  1.0
  C  C192  1  0.62250000  0.19380000  0.44930000  1.0
  C  C193  1  0.59793000  0.31870000  0.33270000  1.0
  C  C194  1  0.53715000  0.23350000  0.42540000  1.0
  C  C195  1  0.52472000  0.27530000  0.49990000  1.0
  C  C196  1  0.50466000  0.16180000  0.37370000  1.0
  C  C197  1  0.45777000  0.13160000  0.39800000  1.0
  C  C198  1  0.44457000  0.17330000  0.47290000  1.0
  C  C199  1  0.46362000  0.27650000  0.60690000  1.0
  C  C200  1  0.47767000  0.24460000  0.52380000  1.0
  C  C201  1  0.42301000  0.03220000  0.34710000  1.0
  C  C202  1  0.76997000  0.25560000  0.38410000  1.0
  C  C203  1  0.81724000  0.26400000  0.36150000  1.0
  C  C204  1  0.64486000  0.67270000  0.80740000  1.0
  C  C205  1  0.79561000  0.67870000  0.73680000  1.0
  C  C206  1  0.74722000  0.68790000  0.75560000  1.0
  C  C207  1  0.73345000  0.72150000  0.83080000  1.0
  C  C208  1  0.68227000  0.73240000  0.85490000  1.0
  C  C209  1  0.66968000  0.79850000  0.92660000  1.0
  C  C210  1  0.62250000  0.80620000  0.94930000  1.0
  C  C211  1  0.59793000  0.68130000  0.83270000  1.0
  C  C212  1  0.53715000  0.76650000  0.92540000  1.0
  C  C213  1  0.52472000  0.72470000  0.99990000  1.0
  C  C214  1  0.50466000  0.83820000  0.87370000  1.0
  C  C215  1  0.45777000  0.86840000  0.89800000  1.0
  C  C216  1  0.44457000  0.82670000  0.97290000  1.0
  C  C217  1  0.46362000  0.72350000  0.10690000  1.0
  C  C218  1  0.47767000  0.75540000  0.02380000  1.0
  C  C219  1  0.42301000  0.96780000  0.84710000  1.0
  C  C220  1  0.76997000  0.74440000  0.88410000  1.0
  C  C221  1  0.81724000  0.73600000  0.86150000  1.0
  C  C222  1  0.14486000  0.82730000  0.19260000  1.0
  C  C223  1  0.29561000  0.82130000  0.26320000  1.0
  C  C224  1  0.24722000  0.81210000  0.24440000  1.0
  C  C225  1  0.23345000  0.77850000  0.16920000  1.0
  C  C226  1  0.18227000  0.76760000  0.14510000  1.0
  C  C227  1  0.16968000  0.70150000  0.07340000  1.0
  C  C228  1  0.12250000  0.69380000  0.05070000  1.0
  C  C229  1  0.09793000  0.81870000  0.16730000  1.0
  C  C230  1  0.03715000  0.73350000  0.07460000  1.0
  C  C231  1  0.02472000  0.77530000  0.00010000  1.0
  C  C232  1  0.00466000  0.66180000  0.12630000  1.0
  C  C233  1  0.95777000  0.63160000  0.10200000  1.0
  C  C234  1  0.94457000  0.67330000  0.02710000  1.0
  C  C235  1  0.96362000  0.77650000  0.89310000  1.0
  C  C236  1  0.97767000  0.74460000  0.97620000  1.0
  C  C237  1  0.92301000  0.53220000  0.15290000  1.0
  C  C238  1  0.26997000  0.75560000  0.11590000  1.0
  C  C239  1  0.31724000  0.76400000  0.13850000  1.0
  N  N240  1  0.16937000  0.29750000  0.21120000  1.0
  N  N241  1  0.41277000  0.25130000  0.09782000  1.0
  N  N242  1  0.66937000  0.20250000  0.78880000  1.0
  N  N243  1  0.91277000  0.24870000  0.90218000  1.0
  N  N244  1  0.66937000  0.79750000  0.28880000  1.0
  N  N245  1  0.91277000  0.75130000  0.40218000  1.0
  N  N246  1  0.16937000  0.70250000  0.71120000  1.0
  N  N247  1  0.41277000  0.74870000  0.59782000  1.0
  N  N248  1  0.33063000  0.20250000  0.71120000  1.0
  N  N249  1  0.08723000  0.24870000  0.59782000  1.0
  N  N250  1  0.83063000  0.29750000  0.28880000  1.0
  N  N251  1  0.58723000  0.25130000  0.40218000  1.0
  N  N252  1  0.83063000  0.70250000  0.78880000  1.0
  N  N253  1  0.58723000  0.74870000  0.90218000  1.0
  N  N254  1  0.33063000  0.79750000  0.21120000  1.0
  N  N255  1  0.08723000  0.75130000  0.09782000  1.0
  O  O256  1  0.56407000  0.01080000  0.22294000  1.0
  O  O257  1  0.57634000  0.20710000  0.87337000  1.0
  O  O258  1  0.51028000  0.36360000  0.85057000  1.0
  O  O259  1  0.61345000  0.96710000  0.12550000  1.0
  O  O260  1  0.06407000  0.48920000  0.77706000  1.0
  O  O261  1  0.07634000  0.29290000  0.12663000  1.0
  O  O262  1  0.01028000  0.13640000  0.14943000  1.0
  O  O263  1  0.11345000  0.53290000  0.87450000  1.0
  O  O264  1  0.06407000  0.51080000  0.27706000  1.0
  O  O265  1  0.07634000  0.70710000  0.62663000  1.0
  O  O266  1  0.01028000  0.86360000  0.64943000  1.0
  O  O267  1  0.11345000  0.46710000  0.37450000  1.0
  O  O268  1  0.56407000  0.98920000  0.72294000  1.0
  O  O269  1  0.57634000  0.79290000  0.37337000  1.0
  O  O270  1  0.51028000  0.63640000  0.35057000  1.0
  O  O271  1  0.61345000  0.03290000  0.62550000  1.0
  O  O272  1  0.93593000  0.48920000  0.72294000  1.0
  O  O273  1  0.92366000  0.29290000  0.37337000  1.0
  O  O274  1  0.98972000  0.13640000  0.35057000  1.0
  O  O275  1  0.88655000  0.53290000  0.62550000  1.0
  O  O276  1  0.43593000  0.01080000  0.27706000  1.0
  O  O277  1  0.42366000  0.20710000  0.62663000  1.0
  O  O278  1  0.48972000  0.36360000  0.64943000  1.0
  O  O279  1  0.38655000  0.96710000  0.37450000  1.0
  O  O280  1  0.43593000  0.98920000  0.77706000  1.0
  O  O281  1  0.42366000  0.79290000  0.12663000  1.0
  O  O282  1  0.48972000  0.63640000  0.14943000  1.0
  O  O283  1  0.38655000  0.03290000  0.87450000  1.0
  O  O284  1  0.93593000  0.51080000  0.22294000  1.0
  O  O285  1  0.92366000  0.70710000  0.87337000  1.0
  O  O286  1  0.98972000  0.86360000  0.85057000  1.0
  O  O287  1  0.88655000  0.46710000  0.12550000  1.0
