# generated using pymatgen
data_V8NiH16C20N4O13
_symmetry_space_group_name_H-M   'P 1'
_cell_length_a   17.07400000
_cell_length_b   17.07400000
_cell_length_c   14.60600000
_cell_angle_alpha   90.00000000
_cell_angle_beta   90.00000000
_cell_angle_gamma   90.00000000
_symmetry_Int_Tables_number   1
_chemical_formula_structural   V8NiH16C20N4O13
_chemical_formula_sum   'V32 Ni4 H64 C80 N16 O52'
_cell_volume   4257.96267846
_cell_formula_units_Z   4
loop_
 _symmetry_equiv_pos_site_id
 _symmetry_equiv_pos_as_xyz
  1  'x, y, z'
loop_
 _atom_site_type_symbol
 _atom_site_label
 _atom_site_symmetry_multiplicity
 _atom_site_fract_x
 _atom_site_fract_y
 _atom_site_fract_z
 _atom_site_occupancy
  V  V0  1  0.88776000  0.12203000  0.12782000  1.0
  V  V1  1  0.04842000  0.18458000  0.08916000  1.0
  V  V2  1  0.81163000  0.96783000  0.08669000  1.0
  V  V3  1  0.07144000  0.06536000  0.23017000  1.0
  V  V4  1  0.11224000  0.87797000  0.12782000  1.0
  V  V5  1  0.95158000  0.81542000  0.08916000  1.0
  V  V6  1  0.18837000  0.03217000  0.08669000  1.0
  V  V7  1  0.92856000  0.93464000  0.23017000  1.0
  V  V8  1  0.12203000  0.11224000  0.87218000  1.0
  V  V9  1  0.18458000  0.95158000  0.91084000  1.0
  V  V10  1  0.96783000  0.18837000  0.91331000  1.0
  V  V11  1  0.06536000  0.92856000  0.76983000  1.0
  V  V12  1  0.87797000  0.88776000  0.87218000  1.0
  V  V13  1  0.81542000  0.04842000  0.91084000  1.0
  V  V14  1  0.03217000  0.81163000  0.91331000  1.0
  V  V15  1  0.93464000  0.07144000  0.76983000  1.0
  V  V16  1  0.38776000  0.37797000  0.62782000  1.0
  V  V17  1  0.54842000  0.31542000  0.58916000  1.0
  V  V18  1  0.31163000  0.53217000  0.58669000  1.0
  V  V19  1  0.57144000  0.43464000  0.73017000  1.0
  V  V20  1  0.61224000  0.62203000  0.62782000  1.0
  V  V21  1  0.45158000  0.68458000  0.58916000  1.0
  V  V22  1  0.68837000  0.46783000  0.58669000  1.0
  V  V23  1  0.42856000  0.56536000  0.73017000  1.0
  V  V24  1  0.62203000  0.38776000  0.37218000  1.0
  V  V25  1  0.68458000  0.54842000  0.41084000  1.0
  V  V26  1  0.46783000  0.31163000  0.41331000  1.0
  V  V27  1  0.56536000  0.57144000  0.26983000  1.0
  V  V28  1  0.37797000  0.61224000  0.37218000  1.0
  V  V29  1  0.31542000  0.45158000  0.41084000  1.0
  V  V30  1  0.53217000  0.68837000  0.41331000  1.0
  V  V31  1  0.43464000  0.42856000  0.26983000  1.0
  Ni  Ni32  1  0.75467000  0.25467000  0.25000000  1.0
  Ni  Ni33  1  0.24533000  0.74533000  0.25000000  1.0
  Ni  Ni34  1  0.25467000  0.24533000  0.75000000  1.0
  Ni  Ni35  1  0.74533000  0.75467000  0.75000000  1.0
  H  H36  1  0.28490000  0.18490000  0.94480000  1.0
  H  H37  1  0.38400000  0.18080000  0.05300000  1.0
  H  H38  1  0.53530000  0.23590000  0.85550000  1.0
  H  H39  1  0.43340000  0.23870000  0.75280000  1.0
  H  H40  1  0.57710000  0.25270000  0.24310000  1.0
  H  H41  1  0.47430000  0.24070000  0.14740000  1.0
  H  H42  1  0.62220000  0.16760000  0.95390000  1.0
  H  H43  1  0.72130000  0.17960000  0.05620000  1.0
  H  H44  1  0.71510000  0.81510000  0.94480000  1.0
  H  H45  1  0.61600000  0.81920000  0.05300000  1.0
  H  H46  1  0.46470000  0.76410000  0.85550000  1.0
  H  H47  1  0.56660000  0.76130000  0.75280000  1.0
  H  H48  1  0.42290000  0.74730000  0.24310000  1.0
  H  H49  1  0.52570000  0.75930000  0.14740000  1.0
  H  H50  1  0.37780000  0.83240000  0.95390000  1.0
  H  H51  1  0.27870000  0.82040000  0.05620000  1.0
  H  H52  1  0.18490000  0.71510000  0.05520000  1.0
  H  H53  1  0.18080000  0.61600000  0.94700000  1.0
  H  H54  1  0.23590000  0.46470000  0.14450000  1.0
  H  H55  1  0.23870000  0.56660000  0.24720000  1.0
  H  H56  1  0.25270000  0.42290000  0.75690000  1.0
  H  H57  1  0.24070000  0.52570000  0.85260000  1.0
  H  H58  1  0.16760000  0.37780000  0.04610000  1.0
  H  H59  1  0.17960000  0.27870000  0.94380000  1.0
  H  H60  1  0.81510000  0.28490000  0.05520000  1.0
  H  H61  1  0.81920000  0.38400000  0.94700000  1.0
  H  H62  1  0.76410000  0.53530000  0.14450000  1.0
  H  H63  1  0.76130000  0.43340000  0.24720000  1.0
  H  H64  1  0.74730000  0.57710000  0.75690000  1.0
  H  H65  1  0.75930000  0.47430000  0.85260000  1.0
  H  H66  1  0.83240000  0.62220000  0.04610000  1.0
  H  H67  1  0.82040000  0.72130000  0.94380000  1.0
  H  H68  1  0.78490000  0.31510000  0.44480000  1.0
  H  H69  1  0.88400000  0.31920000  0.55300000  1.0
  H  H70  1  0.03530000  0.26410000  0.35550000  1.0
  H  H71  1  0.93340000  0.26130000  0.25280000  1.0
  H  H72  1  0.07710000  0.24730000  0.74310000  1.0
  H  H73  1  0.97430000  0.25930000  0.64740000  1.0
  H  H74  1  0.12220000  0.33240000  0.45390000  1.0
  H  H75  1  0.22130000  0.32040000  0.55620000  1.0
  H  H76  1  0.21510000  0.68490000  0.44480000  1.0
  H  H77  1  0.11600000  0.68080000  0.55300000  1.0
  H  H78  1  0.96470000  0.73590000  0.35550000  1.0
  H  H79  1  0.06660000  0.73870000  0.25280000  1.0
  H  H80  1  0.92290000  0.75270000  0.74310000  1.0
  H  H81  1  0.02570000  0.74070000  0.64740000  1.0
  H  H82  1  0.87780000  0.66760000  0.45390000  1.0
  H  H83  1  0.77870000  0.67960000  0.55620000  1.0
  H  H84  1  0.68490000  0.78490000  0.55520000  1.0
  H  H85  1  0.68080000  0.88400000  0.44700000  1.0
  H  H86  1  0.73590000  0.03530000  0.64450000  1.0
  H  H87  1  0.73870000  0.93340000  0.74720000  1.0
  H  H88  1  0.75270000  0.07710000  0.25690000  1.0
  H  H89  1  0.74070000  0.97430000  0.35260000  1.0
  H  H90  1  0.66760000  0.12220000  0.54610000  1.0
  H  H91  1  0.67960000  0.22130000  0.44380000  1.0
  H  H92  1  0.31510000  0.21510000  0.55520000  1.0
  H  H93  1  0.31920000  0.11600000  0.44700000  1.0
  H  H94  1  0.26410000  0.96470000  0.64450000  1.0
  H  H95  1  0.26130000  0.06660000  0.74720000  1.0
  H  H96  1  0.24730000  0.92290000  0.25690000  1.0
  H  H97  1  0.25930000  0.02570000  0.35260000  1.0
  H  H98  1  0.33240000  0.87780000  0.54610000  1.0
  H  H99  1  0.32040000  0.77870000  0.44380000  1.0
  C  C100  1  0.33590000  0.19580000  0.92660000  1.0
  C  C101  1  0.39580000  0.19230000  0.99230000  1.0
  C  C102  1  0.47060000  0.20560000  0.96690000  1.0
  C  C103  1  0.48470000  0.22490000  0.87510000  1.0
  C  C104  1  0.42320000  0.22750000  0.81390000  1.0
  C  C105  1  0.58700000  0.23700000  0.18330000  1.0
  C  C106  1  0.52460000  0.23090000  0.12580000  1.0
  C  C107  1  0.53600000  0.20990000  0.03430000  1.0
  C  C108  1  0.61170000  0.18750000  0.01180000  1.0
  C  C109  1  0.67120000  0.19460000  0.07400000  1.0
  C  C110  1  0.66410000  0.80420000  0.92660000  1.0
  C  C111  1  0.60420000  0.80770000  0.99230000  1.0
  C  C112  1  0.52940000  0.79440000  0.96690000  1.0
  C  C113  1  0.51530000  0.77510000  0.87510000  1.0
  C  C114  1  0.57680000  0.77250000  0.81390000  1.0
  C  C115  1  0.41300000  0.76300000  0.18330000  1.0
  C  C116  1  0.47540000  0.76910000  0.12580000  1.0
  C  C117  1  0.46400000  0.79010000  0.03430000  1.0
  C  C118  1  0.38830000  0.81250000  0.01180000  1.0
  C  C119  1  0.32880000  0.80540000  0.07400000  1.0
  C  C120  1  0.19580000  0.66410000  0.07340000  1.0
  C  C121  1  0.19230000  0.60420000  0.00770000  1.0
  C  C122  1  0.20560000  0.52940000  0.03310000  1.0
  C  C123  1  0.22490000  0.51530000  0.12490000  1.0
  C  C124  1  0.22750000  0.57680000  0.18610000  1.0
  C  C125  1  0.23700000  0.41300000  0.81670000  1.0
  C  C126  1  0.23090000  0.47540000  0.87420000  1.0
  C  C127  1  0.20990000  0.46400000  0.96570000  1.0
  C  C128  1  0.18750000  0.38830000  0.98820000  1.0
  C  C129  1  0.19460000  0.32880000  0.92600000  1.0
  C  C130  1  0.80420000  0.33590000  0.07340000  1.0
  C  C131  1  0.80770000  0.39580000  0.00770000  1.0
  C  C132  1  0.79440000  0.47060000  0.03310000  1.0
  C  C133  1  0.77510000  0.48470000  0.12490000  1.0
  C  C134  1  0.77250000  0.42320000  0.18610000  1.0
  C  C135  1  0.76300000  0.58700000  0.81670000  1.0
  C  C136  1  0.76910000  0.52460000  0.87420000  1.0
  C  C137  1  0.79010000  0.53600000  0.96570000  1.0
  C  C138  1  0.81250000  0.61170000  0.98820000  1.0
  C  C139  1  0.80540000  0.67120000  0.92600000  1.0
  C  C140  1  0.83590000  0.30420000  0.42660000  1.0
  C  C141  1  0.89580000  0.30770000  0.49230000  1.0
  C  C142  1  0.97060000  0.29440000  0.46690000  1.0
  C  C143  1  0.98470000  0.27510000  0.37510000  1.0
  C  C144  1  0.92320000  0.27250000  0.31390000  1.0
  C  C145  1  0.08700000  0.26300000  0.68330000  1.0
  C  C146  1  0.02460000  0.26910000  0.62580000  1.0
  C  C147  1  0.03600000  0.29010000  0.53430000  1.0
  C  C148  1  0.11170000  0.31250000  0.51180000  1.0
  C  C149  1  0.17120000  0.30540000  0.57400000  1.0
  C  C150  1  0.16410000  0.69580000  0.42660000  1.0
  C  C151  1  0.10420000  0.69230000  0.49230000  1.0
  C  C152  1  0.02940000  0.70560000  0.46690000  1.0
  C  C153  1  0.01530000  0.72490000  0.37510000  1.0
  C  C154  1  0.07680000  0.72750000  0.31390000  1.0
  C  C155  1  0.91300000  0.73700000  0.68330000  1.0
  C  C156  1  0.97540000  0.73090000  0.62580000  1.0
  C  C157  1  0.96400000  0.70990000  0.53430000  1.0
  C  C158  1  0.88830000  0.68750000  0.51180000  1.0
  C  C159  1  0.82880000  0.69460000  0.57400000  1.0
  C  C160  1  0.69580000  0.83590000  0.57340000  1.0
  C  C161  1  0.69230000  0.89580000  0.50770000  1.0
  C  C162  1  0.70560000  0.97060000  0.53310000  1.0
  C  C163  1  0.72490000  0.98470000  0.62490000  1.0
  C  C164  1  0.72750000  0.92320000  0.68610000  1.0
  C  C165  1  0.73700000  0.08700000  0.31670000  1.0
  C  C166  1  0.73090000  0.02460000  0.37420000  1.0
  C  C167  1  0.70990000  0.03600000  0.46570000  1.0
  C  C168  1  0.68750000  0.11170000  0.48820000  1.0
  C  C169  1  0.69460000  0.17120000  0.42600000  1.0
  C  C170  1  0.30420000  0.16410000  0.57340000  1.0
  C  C171  1  0.30770000  0.10420000  0.50770000  1.0
  C  C172  1  0.29440000  0.02940000  0.53310000  1.0
  C  C173  1  0.27510000  0.01530000  0.62490000  1.0
  C  C174  1  0.27250000  0.07680000  0.68610000  1.0
  C  C175  1  0.26300000  0.91300000  0.31670000  1.0
  C  C176  1  0.26910000  0.97540000  0.37420000  1.0
  C  C177  1  0.29010000  0.96400000  0.46570000  1.0
  C  C178  1  0.31250000  0.88830000  0.48820000  1.0
  C  C179  1  0.30540000  0.82880000  0.42600000  1.0
  N  N180  1  0.66110000  0.22230000  0.16060000  1.0
  N  N181  1  0.34890000  0.21410000  0.84020000  1.0
  N  N182  1  0.33890000  0.77770000  0.16060000  1.0
  N  N183  1  0.65110000  0.78590000  0.84020000  1.0
  N  N184  1  0.22230000  0.33890000  0.83940000  1.0
  N  N185  1  0.21410000  0.65110000  0.15980000  1.0
  N  N186  1  0.77770000  0.66110000  0.83940000  1.0
  N  N187  1  0.78590000  0.34890000  0.15980000  1.0
  N  N188  1  0.16110000  0.27770000  0.66060000  1.0
  N  N189  1  0.84890000  0.28590000  0.34020000  1.0
  N  N190  1  0.83890000  0.72230000  0.66060000  1.0
  N  N191  1  0.15110000  0.71410000  0.34020000  1.0
  N  N192  1  0.72230000  0.16110000  0.33940000  1.0
  N  N193  1  0.71410000  0.84890000  0.65980000  1.0
  N  N194  1  0.27770000  0.83890000  0.33940000  1.0
  N  N195  1  0.28590000  0.15110000  0.65980000  1.0
  O  O196  1  0.82950000  0.18230000  0.18170000  1.0
  O  O197  1  0.99100000  0.12980000  0.18190000  1.0
  O  O198  1  0.94110000  0.18570000  0.03850000  1.0
  O  O199  1  0.87110000  0.01990000  0.18160000  1.0
  O  O200  1  0.82030000  0.07310000  0.03670000  1.0
  O  O201  1  0.13290000  0.12020000  0.12270000  1.0
  O  O202  1  0.17050000  0.81770000  0.18170000  1.0
  O  O203  1  0.00900000  0.87020000  0.18190000  1.0
  O  O204  1  0.05890000  0.81430000  0.03850000  1.0
  O  O205  1  0.12890000  0.98010000  0.18160000  1.0
  O  O206  1  0.17970000  0.92690000  0.03670000  1.0
  O  O207  1  0.86710000  0.87980000  0.12270000  1.0
  O  O208  1  0.18230000  0.17050000  0.81830000  1.0
  O  O209  1  0.12980000  0.00900000  0.81810000  1.0
  O  O210  1  0.18570000  0.05890000  0.96150000  1.0
  O  O211  1  0.01990000  0.12890000  0.81840000  1.0
  O  O212  1  0.07310000  0.17970000  0.96330000  1.0
  O  O213  1  0.12020000  0.86710000  0.87730000  1.0
  O  O214  1  0.81770000  0.82950000  0.81830000  1.0
  O  O215  1  0.87020000  0.99100000  0.81810000  1.0
  O  O216  1  0.81430000  0.94110000  0.96150000  1.0
  O  O217  1  0.98010000  0.87110000  0.81840000  1.0
  O  O218  1  0.92690000  0.82030000  0.96330000  1.0
  O  O219  1  0.87980000  0.13290000  0.87730000  1.0
  O  O220  1  0.32950000  0.31770000  0.68170000  1.0
  O  O221  1  0.49100000  0.37020000  0.68190000  1.0
  O  O222  1  0.44110000  0.31430000  0.53850000  1.0
  O  O223  1  0.37110000  0.48010000  0.68160000  1.0
  O  O224  1  0.32030000  0.42690000  0.53670000  1.0
  O  O225  1  0.63290000  0.37980000  0.62270000  1.0
  O  O226  1  0.67050000  0.68230000  0.68170000  1.0
  O  O227  1  0.50900000  0.62980000  0.68190000  1.0
  O  O228  1  0.55890000  0.68570000  0.53850000  1.0
  O  O229  1  0.62890000  0.51990000  0.68160000  1.0
  O  O230  1  0.67970000  0.57310000  0.53670000  1.0
  O  O231  1  0.36710000  0.62020000  0.62270000  1.0
  O  O232  1  0.68230000  0.32950000  0.31830000  1.0
  O  O233  1  0.62980000  0.49100000  0.31810000  1.0
  O  O234  1  0.68570000  0.44110000  0.46150000  1.0
  O  O235  1  0.51990000  0.37110000  0.31840000  1.0
  O  O236  1  0.57310000  0.32030000  0.46330000  1.0
  O  O237  1  0.62020000  0.63290000  0.37730000  1.0
  O  O238  1  0.31770000  0.67050000  0.31830000  1.0
  O  O239  1  0.37020000  0.50900000  0.31810000  1.0
  O  O240  1  0.31430000  0.55890000  0.46150000  1.0
  O  O241  1  0.48010000  0.62890000  0.31840000  1.0
  O  O242  1  0.42690000  0.67970000  0.46330000  1.0
  O  O243  1  0.37980000  0.36710000  0.37730000  1.0
  O  O244  1  0.00000000  0.00000000  0.28320000  1.0
  O  O245  1  0.00000000  0.00000000  0.71680000  1.0
  O  O246  1  0.50000000  0.50000000  0.78320000  1.0
  O  O247  1  0.50000000  0.50000000  0.21680000  1.0
