# generated using pymatgen
data_NdH3C9(NO2)3
_symmetry_space_group_name_H-M   'P 1'
_cell_length_a   10.48310000
_cell_length_b   14.02800000
_cell_length_c   18.14400000
_cell_angle_alpha   100.02800000
_cell_angle_beta   90.00000000
_cell_angle_gamma   90.00000000
_symmetry_Int_Tables_number   1
_chemical_formula_structural   NdH3C9(NO2)3
_chemical_formula_sum   'Nd8 H24 C72 N24 O48'
_cell_volume   2627.43817444
_cell_formula_units_Z   8
loop_
 _symmetry_equiv_pos_site_id
 _symmetry_equiv_pos_as_xyz
  1  'x, y, z'
loop_
 _atom_site_type_symbol
 _atom_site_label
 _atom_site_symmetry_multiplicity
 _atom_site_fract_x
 _atom_site_fract_y
 _atom_site_fract_z
 _atom_site_occupancy
  Nd  Nd0  1  0.75139000  0.39649000  0.70769000  1.0
  Nd  Nd1  1  0.73027000  0.34843000  0.34431000  1.0
  Nd  Nd2  1  0.25139000  0.10351000  0.79231000  1.0
  Nd  Nd3  1  0.23027000  0.15157000  0.15569000  1.0
  Nd  Nd4  1  0.24861000  0.60351000  0.29231000  1.0
  Nd  Nd5  1  0.26973000  0.65157000  0.65569000  1.0
  Nd  Nd6  1  0.74861000  0.89649000  0.20769000  1.0
  Nd  Nd7  1  0.76973000  0.84843000  0.84431000  1.0
  H  H8  1  0.60800000  0.63450000  0.51030000  1.0
  H  H9  1  0.97710000  0.63240000  0.53260000  1.0
  H  H10  1  0.48740000  0.63680000  0.92710000  1.0
  H  H11  1  0.34830000  0.37620000  0.89740000  1.0
  H  H12  1  0.55180000  0.16760000  0.56570000  1.0
  H  H13  1  0.35690000  0.09130000  0.38190000  1.0
  H  H14  1  0.10800000  0.86550000  0.98970000  1.0
  H  H15  1  0.47710000  0.86760000  0.96740000  1.0
  H  H16  1  0.98740000  0.86320000  0.57290000  1.0
  H  H17  1  0.84830000  0.12380000  0.60260000  1.0
  H  H18  1  0.05180000  0.33240000  0.93430000  1.0
  H  H19  1  0.85690000  0.40870000  0.11810000  1.0
  H  H20  1  0.39200000  0.36550000  0.48970000  1.0
  H  H21  1  0.02290000  0.36760000  0.46740000  1.0
  H  H22  1  0.51260000  0.36320000  0.07290000  1.0
  H  H23  1  0.65170000  0.62380000  0.10260000  1.0
  H  H24  1  0.44820000  0.83240000  0.43430000  1.0
  H  H25  1  0.64310000  0.90870000  0.61810000  1.0
  H  H26  1  0.89200000  0.13450000  0.01030000  1.0
  H  H27  1  0.52290000  0.13240000  0.03260000  1.0
  H  H28  1  0.01260000  0.13680000  0.42710000  1.0
  H  H29  1  0.15170000  0.87620000  0.39740000  1.0
  H  H30  1  0.94820000  0.66760000  0.06570000  1.0
  H  H31  1  0.14310000  0.59130000  0.88190000  1.0
  C  C32  1  0.66810000  0.55090000  0.58150000  1.0
  C  C33  1  0.68120000  0.61340000  0.53160000  1.0
  C  C34  1  0.89640000  0.61230000  0.54460000  1.0
  C  C35  1  0.88590000  0.54970000  0.59500000  1.0
  C  C36  1  0.54130000  0.51360000  0.60780000  1.0
  C  C37  1  0.99500000  0.50880000  0.63510000  1.0
  C  C38  1  0.57390000  0.54500000  0.84410000  1.0
  C  C39  1  0.48740000  0.57300000  0.90220000  1.0
  C  C40  1  0.40570000  0.42120000  0.88460000  1.0
  C  C41  1  0.48980000  0.39230000  0.82590000  1.0
  C  C42  1  0.67240000  0.60920000  0.81880000  1.0
  C  C43  1  0.49340000  0.29110000  0.77970000  1.0
  C  C44  1  0.60910000  0.23270000  0.48200000  1.0
  C  C45  1  0.53610000  0.17160000  0.51580000  1.0
  C  C46  1  0.42130000  0.12770000  0.40860000  1.0
  C  C47  1  0.49150000  0.19060000  0.37350000  1.0
  C  C48  1  0.71670000  0.29580000  0.51920000  1.0
  C  C49  1  0.46980000  0.21160000  0.29700000  1.0
  C  C50  1  0.16810000  0.94910000  0.91850000  1.0
  C  C51  1  0.18120000  0.88660000  0.96840000  1.0
  C  C52  1  0.39640000  0.88770000  0.95540000  1.0
  C  C53  1  0.38590000  0.95030000  0.90500000  1.0
  C  C54  1  0.04130000  0.98640000  0.89220000  1.0
  C  C55  1  0.49500000  0.99120000  0.86490000  1.0
  C  C56  1  0.07390000  0.95500000  0.65590000  1.0
  C  C57  1  0.98740000  0.92700000  0.59780000  1.0
  C  C58  1  0.90570000  0.07880000  0.61540000  1.0
  C  C59  1  0.98980000  0.10770000  0.67410000  1.0
  C  C60  1  0.17240000  0.89080000  0.68120000  1.0
  C  C61  1  0.99340000  0.20890000  0.72030000  1.0
  C  C62  1  0.10910000  0.26730000  0.01800000  1.0
  C  C63  1  0.03610000  0.32840000  0.98420000  1.0
  C  C64  1  0.92130000  0.37230000  0.09140000  1.0
  C  C65  1  0.99150000  0.30940000  0.12650000  1.0
  C  C66  1  0.21670000  0.20420000  0.98080000  1.0
  C  C67  1  0.96980000  0.28840000  0.20300000  1.0
  C  C68  1  0.33190000  0.44910000  0.41850000  1.0
  C  C69  1  0.31880000  0.38660000  0.46840000  1.0
  C  C70  1  0.10360000  0.38770000  0.45540000  1.0
  C  C71  1  0.11410000  0.45030000  0.40500000  1.0
  C  C72  1  0.45870000  0.48640000  0.39220000  1.0
  C  C73  1  0.00500000  0.49120000  0.36490000  1.0
  C  C74  1  0.42610000  0.45500000  0.15590000  1.0
  C  C75  1  0.51260000  0.42700000  0.09780000  1.0
  C  C76  1  0.59430000  0.57880000  0.11540000  1.0
  C  C77  1  0.51020000  0.60770000  0.17410000  1.0
  C  C78  1  0.32760000  0.39080000  0.18120000  1.0
  C  C79  1  0.50660000  0.70890000  0.22030000  1.0
  C  C80  1  0.39090000  0.76730000  0.51800000  1.0
  C  C81  1  0.46390000  0.82840000  0.48420000  1.0
  C  C82  1  0.57870000  0.87230000  0.59140000  1.0
  C  C83  1  0.50850000  0.80940000  0.62650000  1.0
  C  C84  1  0.28330000  0.70420000  0.48080000  1.0
  C  C85  1  0.53020000  0.78840000  0.70300000  1.0
  C  C86  1  0.83190000  0.05090000  0.08150000  1.0
  C  C87  1  0.81880000  0.11340000  0.03160000  1.0
  C  C88  1  0.60360000  0.11230000  0.04460000  1.0
  C  C89  1  0.61410000  0.04970000  0.09500000  1.0
  C  C90  1  0.95870000  0.01360000  0.10780000  1.0
  C  C91  1  0.50500000  0.00880000  0.13510000  1.0
  C  C92  1  0.92610000  0.04500000  0.34410000  1.0
  C  C93  1  0.01260000  0.07300000  0.40220000  1.0
  C  C94  1  0.09430000  0.92120000  0.38460000  1.0
  C  C95  1  0.01020000  0.89230000  0.32590000  1.0
  C  C96  1  0.82760000  0.10920000  0.31880000  1.0
  C  C97  1  0.00660000  0.79110000  0.27970000  1.0
  C  C98  1  0.89090000  0.73270000  0.98200000  1.0
  C  C99  1  0.96390000  0.67160000  0.01580000  1.0
  C  C100  1  0.07870000  0.62770000  0.90860000  1.0
  C  C101  1  0.00850000  0.69060000  0.87350000  1.0
  C  C102  1  0.78330000  0.79580000  0.01920000  1.0
  C  C103  1  0.03020000  0.71160000  0.79700000  1.0
  N  N104  1  0.77110000  0.51670000  0.61310000  1.0
  N  N105  1  0.79410000  0.64540000  0.51220000  1.0
  N  N106  1  0.57410000  0.45380000  0.80770000  1.0
  N  N107  1  0.40460000  0.51030000  0.92290000  1.0
  N  N108  1  0.58660000  0.24160000  0.41160000  1.0
  N  N109  1  0.44250000  0.11720000  0.47910000  1.0
  N  N110  1  0.27110000  0.98330000  0.88690000  1.0
  N  N111  1  0.29410000  0.85460000  0.98780000  1.0
  N  N112  1  0.07410000  0.04620000  0.69230000  1.0
  N  N113  1  0.90460000  0.98970000  0.57710000  1.0
  N  N114  1  0.08660000  0.25840000  0.08840000  1.0
  N  N115  1  0.94250000  0.38280000  0.02090000  1.0
  N  N116  1  0.22890000  0.48330000  0.38690000  1.0
  N  N117  1  0.20590000  0.35460000  0.48780000  1.0
  N  N118  1  0.42590000  0.54620000  0.19230000  1.0
  N  N119  1  0.59540000  0.48970000  0.07710000  1.0
  N  N120  1  0.41340000  0.75840000  0.58840000  1.0
  N  N121  1  0.55750000  0.88280000  0.52090000  1.0
  N  N122  1  0.72890000  0.01670000  0.11310000  1.0
  N  N123  1  0.70590000  0.14540000  0.01220000  1.0
  N  N124  1  0.92590000  0.95380000  0.30770000  1.0
  N  N125  1  0.09540000  0.01030000  0.42290000  1.0
  N  N126  1  0.91340000  0.74160000  0.91160000  1.0
  N  N127  1  0.05750000  0.61720000  0.97910000  1.0
  O  O128  1  0.54730000  0.45140000  0.64830000  1.0
  O  O129  1  0.44190000  0.55210000  0.58740000  1.0
  O  O130  1  0.96740000  0.45530000  0.67930000  1.0
  O  O131  1  0.10450000  0.53580000  0.61890000  1.0
  O  O132  1  0.75100000  0.57070000  0.77170000  1.0
  O  O133  1  0.66890000  0.69730000  0.84800000  1.0
  O  O134  1  0.58530000  0.27420000  0.73370000  1.0
  O  O135  1  0.40530000  0.23560000  0.78930000  1.0
  O  O136  1  0.77480000  0.34560000  0.47930000  1.0
  O  O137  1  0.73830000  0.29260000  0.58680000  1.0
  O  O138  1  0.54710000  0.26840000  0.27350000  1.0
  O  O139  1  0.37370000  0.17110000  0.26200000  1.0
  O  O140  1  0.04730000  0.04860000  0.85170000  1.0
  O  O141  1  0.94190000  0.94790000  0.91260000  1.0
  O  O142  1  0.46740000  0.04470000  0.82070000  1.0
  O  O143  1  0.60450000  0.96420000  0.88110000  1.0
  O  O144  1  0.25100000  0.92930000  0.72830000  1.0
  O  O145  1  0.16890000  0.80270000  0.65200000  1.0
  O  O146  1  0.08530000  0.22580000  0.76630000  1.0
  O  O147  1  0.90530000  0.26440000  0.71070000  1.0
  O  O148  1  0.27480000  0.15440000  0.02070000  1.0
  O  O149  1  0.23830000  0.20740000  0.91320000  1.0
  O  O150  1  0.04710000  0.23160000  0.22650000  1.0
  O  O151  1  0.87370000  0.32890000  0.23800000  1.0
  O  O152  1  0.45270000  0.54860000  0.35170000  1.0
  O  O153  1  0.55810000  0.44790000  0.41260000  1.0
  O  O154  1  0.03260000  0.54470000  0.32070000  1.0
  O  O155  1  0.89550000  0.46420000  0.38110000  1.0
  O  O156  1  0.24900000  0.42930000  0.22830000  1.0
  O  O157  1  0.33110000  0.30270000  0.15200000  1.0
  O  O158  1  0.41470000  0.72580000  0.26630000  1.0
  O  O159  1  0.59470000  0.76440000  0.21070000  1.0
  O  O160  1  0.22520000  0.65440000  0.52070000  1.0
  O  O161  1  0.26170000  0.70740000  0.41320000  1.0
  O  O162  1  0.45290000  0.73160000  0.72650000  1.0
  O  O163  1  0.62630000  0.82890000  0.73800000  1.0
  O  O164  1  0.95270000  0.95140000  0.14830000  1.0
  O  O165  1  0.05810000  0.05210000  0.08740000  1.0
  O  O166  1  0.53260000  0.95530000  0.17930000  1.0
  O  O167  1  0.39550000  0.03580000  0.11890000  1.0
  O  O168  1  0.74900000  0.07070000  0.27170000  1.0
  O  O169  1  0.83110000  0.19730000  0.34800000  1.0
  O  O170  1  0.91470000  0.77420000  0.23370000  1.0
  O  O171  1  0.09470000  0.73560000  0.28930000  1.0
  O  O172  1  0.72520000  0.84560000  0.97930000  1.0
  O  O173  1  0.76170000  0.79260000  0.08680000  1.0
  O  O174  1  0.95290000  0.76840000  0.77350000  1.0
  O  O175  1  0.12630000  0.67110000  0.76200000  1.0
