# generated using pymatgen
data_ZnH14C18(NO2)2
_symmetry_space_group_name_H-M   'P 1'
_cell_length_a   22.21900000
_cell_length_b   5.52430000
_cell_length_c   18.47190000
_cell_angle_alpha   90.00000000
_cell_angle_beta   115.96200000
_cell_angle_gamma   90.00000000
_symmetry_Int_Tables_number   1
_chemical_formula_structural   ZnH14C18(NO2)2
_chemical_formula_sum   'Zn4 H56 C72 N8 O16'
_cell_volume   2038.51487903
_cell_formula_units_Z   4
loop_
 _symmetry_equiv_pos_site_id
 _symmetry_equiv_pos_as_xyz
  1  'x, y, z'
loop_
 _atom_site_type_symbol
 _atom_site_label
 _atom_site_symmetry_multiplicity
 _atom_site_fract_x
 _atom_site_fract_y
 _atom_site_fract_z
 _atom_site_occupancy
  Zn  Zn0  1  0.50000000  0.03681000  0.25000000  1.0
  Zn  Zn1  1  0.00000000  0.53681000  0.25000000  1.0
  Zn  Zn2  1  0.50000000  0.96319000  0.75000000  1.0
  Zn  Zn3  1  0.00000000  0.46319000  0.75000000  1.0
  H  H4  1  0.65460000  0.73720000  0.30520000  1.0
  H  H5  1  0.60340000  0.08780000  0.42210000  1.0
  H  H6  1  0.68690000  0.34500000  0.50220000  1.0
  H  H7  1  0.57180000  0.46890000  0.23030000  1.0
  H  H8  1  0.56560000  0.82200000  0.04400000  1.0
  H  H9  1  0.74040000  0.87500000  0.43080000  1.0
  H  H10  1  0.47030000  0.51200000  0.05540000  1.0
  H  H11  1  0.15460000  0.23720000  0.30520000  1.0
  H  H12  1  0.10340000  0.58780000  0.42210000  1.0
  H  H13  1  0.18690000  0.84500000  0.50220000  1.0
  H  H14  1  0.07180000  0.96890000  0.23030000  1.0
  H  H15  1  0.06560000  0.32200000  0.04400000  1.0
  H  H16  1  0.24040000  0.37500000  0.43080000  1.0
  H  H17  1  0.97030000  0.01200000  0.05540000  1.0
  H  H18  1  0.34540000  0.73720000  0.19480000  1.0
  H  H19  1  0.39660000  0.08780000  0.07790000  1.0
  H  H20  1  0.31310000  0.34500000  0.99780000  1.0
  H  H21  1  0.42820000  0.46890000  0.26970000  1.0
  H  H22  1  0.43440000  0.82200000  0.45600000  1.0
  H  H23  1  0.25960000  0.87500000  0.06920000  1.0
  H  H24  1  0.52970000  0.51200000  0.44460000  1.0
  H  H25  1  0.84540000  0.23720000  0.19480000  1.0
  H  H26  1  0.89660000  0.58780000  0.07790000  1.0
  H  H27  1  0.81310000  0.84500000  0.99780000  1.0
  H  H28  1  0.92820000  0.96890000  0.26970000  1.0
  H  H29  1  0.93440000  0.32200000  0.45600000  1.0
  H  H30  1  0.75960000  0.37500000  0.06920000  1.0
  H  H31  1  0.02970000  0.01200000  0.44460000  1.0
  H  H32  1  0.34540000  0.26280000  0.69480000  1.0
  H  H33  1  0.39660000  0.91220000  0.57790000  1.0
  H  H34  1  0.31310000  0.65500000  0.49780000  1.0
  H  H35  1  0.42820000  0.53110000  0.76970000  1.0
  H  H36  1  0.43440000  0.17800000  0.95600000  1.0
  H  H37  1  0.25960000  0.12500000  0.56920000  1.0
  H  H38  1  0.52970000  0.48800000  0.94460000  1.0
  H  H39  1  0.84540000  0.76280000  0.69480000  1.0
  H  H40  1  0.89660000  0.41220000  0.57790000  1.0
  H  H41  1  0.81310000  0.15500000  0.49780000  1.0
  H  H42  1  0.92820000  0.03110000  0.76970000  1.0
  H  H43  1  0.93440000  0.67800000  0.95600000  1.0
  H  H44  1  0.75960000  0.62500000  0.56920000  1.0
  H  H45  1  0.02970000  0.98800000  0.94460000  1.0
  H  H46  1  0.65460000  0.26280000  0.80520000  1.0
  H  H47  1  0.60340000  0.91220000  0.92210000  1.0
  H  H48  1  0.68690000  0.65500000  0.00220000  1.0
  H  H49  1  0.57180000  0.53110000  0.73030000  1.0
  H  H50  1  0.56560000  0.17800000  0.54400000  1.0
  H  H51  1  0.74040000  0.12500000  0.93080000  1.0
  H  H52  1  0.47030000  0.48800000  0.55540000  1.0
  H  H53  1  0.15460000  0.76280000  0.80520000  1.0
  H  H54  1  0.10340000  0.41220000  0.92210000  1.0
  H  H55  1  0.18690000  0.15500000  0.00220000  1.0
  H  H56  1  0.07180000  0.03110000  0.73030000  1.0
  H  H57  1  0.06560000  0.67800000  0.54400000  1.0
  H  H58  1  0.24040000  0.62500000  0.93080000  1.0
  H  H59  1  0.97030000  0.98800000  0.55540000  1.0
  C  C60  1  0.64490000  0.60730000  0.33038000  1.0
  C  C61  1  0.61380000  0.22050000  0.39869000  1.0
  C  C62  1  0.53356000  0.90350000  0.13172000  1.0
  C  C63  1  0.68058000  0.57560000  0.41339000  1.0
  C  C64  1  0.66403000  0.37450000  0.44723000  1.0
  C  C65  1  0.59504000  0.44490000  0.28554000  1.0
  C  C66  1  0.49965000  0.56700000  0.03358000  1.0
  C  C67  1  0.53677000  0.76270000  0.06509000  1.0
  C  C68  1  0.73244000  0.75180000  0.45995000  1.0
  C  C69  1  0.14490000  0.10730000  0.33038000  1.0
  C  C70  1  0.11380000  0.72050000  0.39869000  1.0
  C  C71  1  0.03356000  0.40350000  0.13172000  1.0
  C  C72  1  0.18058000  0.07560000  0.41339000  1.0
  C  C73  1  0.16403000  0.87450000  0.44723000  1.0
  C  C74  1  0.09504000  0.94490000  0.28554000  1.0
  C  C75  1  0.99965000  0.06700000  0.03358000  1.0
  C  C76  1  0.03677000  0.26270000  0.06509000  1.0
  C  C77  1  0.23244000  0.25180000  0.45995000  1.0
  C  C78  1  0.35510000  0.60730000  0.16962000  1.0
  C  C79  1  0.38620000  0.22050000  0.10131000  1.0
  C  C80  1  0.46644000  0.90350000  0.36828000  1.0
  C  C81  1  0.31942000  0.57560000  0.08661000  1.0
  C  C82  1  0.33597000  0.37450000  0.05277000  1.0
  C  C83  1  0.40496000  0.44490000  0.21446000  1.0
  C  C84  1  0.50035000  0.56700000  0.46642000  1.0
  C  C85  1  0.46323000  0.76270000  0.43491000  1.0
  C  C86  1  0.26756000  0.75180000  0.04005000  1.0
  C  C87  1  0.85510000  0.10730000  0.16962000  1.0
  C  C88  1  0.88620000  0.72050000  0.10131000  1.0
  C  C89  1  0.96644000  0.40350000  0.36828000  1.0
  C  C90  1  0.81942000  0.07560000  0.08661000  1.0
  C  C91  1  0.83597000  0.87450000  0.05277000  1.0
  C  C92  1  0.90496000  0.94490000  0.21446000  1.0
  C  C93  1  0.00035000  0.06700000  0.46642000  1.0
  C  C94  1  0.96323000  0.26270000  0.43491000  1.0
  C  C95  1  0.76756000  0.25180000  0.04005000  1.0
  C  C96  1  0.35510000  0.39270000  0.66962000  1.0
  C  C97  1  0.38620000  0.77950000  0.60131000  1.0
  C  C98  1  0.46644000  0.09650000  0.86828000  1.0
  C  C99  1  0.31942000  0.42440000  0.58661000  1.0
  C  C100  1  0.33597000  0.62550000  0.55277000  1.0
  C  C101  1  0.40496000  0.55510000  0.71446000  1.0
  C  C102  1  0.50035000  0.43300000  0.96642000  1.0
  C  C103  1  0.46323000  0.23730000  0.93491000  1.0
  C  C104  1  0.26756000  0.24820000  0.54005000  1.0
  C  C105  1  0.85510000  0.89270000  0.66962000  1.0
  C  C106  1  0.88620000  0.27950000  0.60131000  1.0
  C  C107  1  0.96644000  0.59650000  0.86828000  1.0
  C  C108  1  0.81942000  0.92440000  0.58661000  1.0
  C  C109  1  0.83597000  0.12550000  0.55277000  1.0
  C  C110  1  0.90496000  0.05510000  0.71446000  1.0
  C  C111  1  0.00035000  0.93300000  0.96642000  1.0
  C  C112  1  0.96323000  0.73730000  0.93491000  1.0
  C  C113  1  0.76756000  0.74820000  0.54005000  1.0
  C  C114  1  0.64490000  0.39270000  0.83038000  1.0
  C  C115  1  0.61380000  0.77950000  0.89869000  1.0
  C  C116  1  0.53356000  0.09650000  0.63172000  1.0
  C  C117  1  0.68058000  0.42440000  0.91339000  1.0
  C  C118  1  0.66403000  0.62550000  0.94723000  1.0
  C  C119  1  0.59504000  0.55510000  0.78554000  1.0
  C  C120  1  0.49965000  0.43300000  0.53358000  1.0
  C  C121  1  0.53677000  0.23730000  0.56509000  1.0
  C  C122  1  0.73244000  0.24820000  0.95995000  1.0
  C  C123  1  0.14490000  0.89270000  0.83038000  1.0
  C  C124  1  0.11380000  0.27950000  0.89869000  1.0
  C  C125  1  0.03356000  0.59650000  0.63172000  1.0
  C  C126  1  0.18058000  0.92440000  0.91339000  1.0
  C  C127  1  0.16403000  0.12550000  0.94723000  1.0
  C  C128  1  0.09504000  0.05510000  0.78554000  1.0
  C  C129  1  0.99965000  0.93300000  0.53358000  1.0
  C  C130  1  0.03677000  0.73730000  0.56509000  1.0
  C  C131  1  0.23244000  0.74820000  0.95995000  1.0
  N  N132  1  0.57894000  0.25422000  0.31851000  1.0
  N  N133  1  0.07894000  0.75422000  0.31851000  1.0
  N  N134  1  0.42106000  0.25422000  0.18149000  1.0
  N  N135  1  0.92106000  0.75422000  0.18149000  1.0
  N  N136  1  0.42106000  0.74578000  0.68149000  1.0
  N  N137  1  0.92106000  0.24578000  0.68149000  1.0
  N  N138  1  0.57894000  0.74578000  0.81851000  1.0
  N  N139  1  0.07894000  0.24578000  0.81851000  1.0
  O  O140  1  0.49831000  0.81802000  0.16494000  1.0
  O  O141  1  0.56339000  0.09930000  0.15187000  1.0
  O  O142  1  0.99831000  0.31802000  0.16494000  1.0
  O  O143  1  0.06339000  0.59930000  0.15187000  1.0
  O  O144  1  0.50169000  0.81802000  0.33506000  1.0
  O  O145  1  0.43661000  0.09930000  0.34813000  1.0
  O  O146  1  0.00169000  0.31802000  0.33506000  1.0
  O  O147  1  0.93661000  0.59930000  0.34813000  1.0
  O  O148  1  0.50169000  0.18198000  0.83506000  1.0
  O  O149  1  0.43661000  0.90070000  0.84813000  1.0
  O  O150  1  0.00169000  0.68198000  0.83506000  1.0
  O  O151  1  0.93661000  0.40070000  0.84813000  1.0
  O  O152  1  0.49831000  0.18198000  0.66494000  1.0
  O  O153  1  0.56339000  0.90070000  0.65187000  1.0
  O  O154  1  0.99831000  0.68198000  0.66494000  1.0
  O  O155  1  0.06339000  0.40070000  0.65187000  1.0
