# generated using pymatgen
data_AgH12(C3N)6
_symmetry_space_group_name_H-M   'P 1'
_cell_length_a   22.09350000
_cell_length_b   16.28970000
_cell_length_c   25.63060000
_cell_angle_alpha   90.00000000
_cell_angle_beta   115.27700000
_cell_angle_gamma   90.00000000
_symmetry_Int_Tables_number   1
_chemical_formula_structural   AgH12(C3N)6
_chemical_formula_sum   'Ag16 H192 C288 N96'
_cell_volume   8341.16731820
_cell_formula_units_Z   16
loop_
 _symmetry_equiv_pos_site_id
 _symmetry_equiv_pos_as_xyz
  1  'x, y, z'
loop_
 _atom_site_type_symbol
 _atom_site_label
 _atom_site_symmetry_multiplicity
 _atom_site_fract_x
 _atom_site_fract_y
 _atom_site_fract_z
 _atom_site_occupancy
  Ag  Ag0  1  0.34389000  0.54296000  0.36775000  1.0
  Ag  Ag1  1  0.82289000  0.74813000  0.86721000  1.0
  Ag  Ag2  1  0.84389000  0.04296000  0.36775000  1.0
  Ag  Ag3  1  0.32289000  0.24813000  0.86722000  1.0
  Ag  Ag4  1  0.65611000  0.54296000  0.13225000  1.0
  Ag  Ag5  1  0.17711000  0.74813000  0.63278000  1.0
  Ag  Ag6  1  0.15611000  0.04296000  0.13225000  1.0
  Ag  Ag7  1  0.67711000  0.24813000  0.63278000  1.0
  Ag  Ag8  1  0.65611000  0.45704000  0.63225000  1.0
  Ag  Ag9  1  0.17711000  0.25187000  0.13278000  1.0
  Ag  Ag10  1  0.15611000  0.95704000  0.63225000  1.0
  Ag  Ag11  1  0.67711000  0.75187000  0.13278000  1.0
  Ag  Ag12  1  0.34389000  0.45704000  0.86775000  1.0
  Ag  Ag13  1  0.82289000  0.25187000  0.36722000  1.0
  Ag  Ag14  1  0.84389000  0.95704000  0.86775000  1.0
  Ag  Ag15  1  0.32289000  0.75187000  0.36722000  1.0
  H  H16  1  0.71310000  0.94220000  0.34840000  1.0
  H  H17  1  0.29890000  0.36600000  0.04920000  1.0
  H  H18  1  0.82080000  0.91130000  0.54490000  1.0
  H  H19  1  0.19950000  0.34410000  0.85190000  1.0
  H  H20  1  0.92360000  0.68530000  0.98520000  1.0
  H  H21  1  0.55450000  0.70950000  0.38980000  1.0
  H  H22  1  0.02250000  0.61710000  0.03650000  1.0
  H  H23  1  0.13480000  0.56120000  0.16180000  1.0
  H  H24  1  0.54330000  0.66970000  0.54010000  1.0
  H  H25  1  0.86830000  0.98220000  0.49430000  1.0
  H  H26  1  0.34930000  0.29600000  0.00020000  1.0
  H  H27  1  0.92350000  0.61760000  0.83930000  1.0
  H  H28  1  0.35200000  0.47860000  0.26370000  1.0
  H  H29  1  0.14360000  0.41290000  0.89660000  1.0
  H  H30  1  0.66210000  0.86620000  0.39390000  1.0
  H  H31  1  0.45580000  0.63750000  0.34430000  1.0
  H  H32  1  0.44390000  0.60320000  0.48990000  1.0
  H  H33  1  0.86780000  0.82100000  0.76750000  1.0
  H  H34  1  0.02060000  0.54360000  0.88640000  1.0
  H  H35  1  0.82380000  0.83520000  0.66850000  1.0
  H  H36  1  0.18940000  0.57750000  0.25990000  1.0
  H  H37  1  0.67710000  0.68020000  0.65640000  1.0
  H  H38  1  0.30220000  0.45950000  0.16500000  1.0
  H  H39  1  0.72560000  0.67050000  0.75500000  1.0
  H  H40  1  0.21310000  0.44220000  0.34840000  1.0
  H  H41  1  0.79890000  0.86600000  0.04920000  1.0
  H  H42  1  0.32080000  0.41130000  0.54490000  1.0
  H  H43  1  0.69950000  0.84410000  0.85190000  1.0
  H  H44  1  0.42360000  0.18530000  0.98520000  1.0
  H  H45  1  0.05450000  0.20950000  0.38980000  1.0
  H  H46  1  0.52250000  0.11710000  0.03650000  1.0
  H  H47  1  0.63480000  0.06120000  0.16180000  1.0
  H  H48  1  0.04330000  0.16970000  0.54010000  1.0
  H  H49  1  0.36830000  0.48220000  0.49430000  1.0
  H  H50  1  0.84930000  0.79600000  0.00020000  1.0
  H  H51  1  0.42350000  0.11760000  0.83930000  1.0
  H  H52  1  0.85200000  0.97860000  0.26370000  1.0
  H  H53  1  0.64360000  0.91290000  0.89660000  1.0
  H  H54  1  0.16210000  0.36620000  0.39390000  1.0
  H  H55  1  0.95580000  0.13750000  0.34430000  1.0
  H  H56  1  0.94390000  0.10320000  0.48990000  1.0
  H  H57  1  0.36780000  0.32100000  0.76750000  1.0
  H  H58  1  0.52060000  0.04360000  0.88640000  1.0
  H  H59  1  0.32380000  0.33520000  0.66850000  1.0
  H  H60  1  0.68940000  0.07750000  0.25990000  1.0
  H  H61  1  0.17710000  0.18020000  0.65640000  1.0
  H  H62  1  0.80220000  0.95950000  0.16500000  1.0
  H  H63  1  0.22560000  0.17050000  0.75500000  1.0
  H  H64  1  0.28690000  0.94220000  0.15160000  1.0
  H  H65  1  0.70110000  0.36600000  0.45080000  1.0
  H  H66  1  0.17920000  0.91130000  0.95510000  1.0
  H  H67  1  0.80050000  0.34410000  0.64810000  1.0
  H  H68  1  0.07640000  0.68530000  0.51480000  1.0
  H  H69  1  0.44550000  0.70950000  0.11020000  1.0
  H  H70  1  0.97750000  0.61710000  0.46350000  1.0
  H  H71  1  0.86520000  0.56120000  0.33820000  1.0
  H  H72  1  0.45670000  0.66970000  0.95990000  1.0
  H  H73  1  0.13170000  0.98220000  0.00570000  1.0
  H  H74  1  0.65070000  0.29600000  0.49980000  1.0
  H  H75  1  0.07650000  0.61760000  0.66070000  1.0
  H  H76  1  0.64800000  0.47860000  0.23630000  1.0
  H  H77  1  0.85640000  0.41290000  0.60340000  1.0
  H  H78  1  0.33790000  0.86620000  0.10610000  1.0
  H  H79  1  0.54420000  0.63750000  0.15570000  1.0
  H  H80  1  0.55610000  0.60320000  0.01010000  1.0
  H  H81  1  0.13220000  0.82100000  0.73250000  1.0
  H  H82  1  0.97940000  0.54360000  0.61360000  1.0
  H  H83  1  0.17620000  0.83520000  0.83150000  1.0
  H  H84  1  0.81060000  0.57750000  0.24010000  1.0
  H  H85  1  0.32290000  0.68020000  0.84360000  1.0
  H  H86  1  0.69780000  0.45950000  0.33500000  1.0
  H  H87  1  0.27440000  0.67050000  0.74500000  1.0
  H  H88  1  0.78690000  0.44220000  0.15160000  1.0
  H  H89  1  0.20110000  0.86600000  0.45080000  1.0
  H  H90  1  0.67920000  0.41130000  0.95510000  1.0
  H  H91  1  0.30050000  0.84410000  0.64810000  1.0
  H  H92  1  0.57640000  0.18530000  0.51480000  1.0
  H  H93  1  0.94550000  0.20950000  0.11020000  1.0
  H  H94  1  0.47750000  0.11710000  0.46350000  1.0
  H  H95  1  0.36520000  0.06120000  0.33820000  1.0
  H  H96  1  0.95670000  0.16970000  0.95990000  1.0
  H  H97  1  0.63170000  0.48220000  0.00570000  1.0
  H  H98  1  0.15070000  0.79600000  0.49980000  1.0
  H  H99  1  0.57650000  0.11760000  0.66070000  1.0
  H  H100  1  0.14800000  0.97860000  0.23630000  1.0
  H  H101  1  0.35640000  0.91290000  0.60340000  1.0
  H  H102  1  0.83790000  0.36620000  0.10610000  1.0
  H  H103  1  0.04420000  0.13750000  0.15570000  1.0
  H  H104  1  0.05610000  0.10320000  0.01010000  1.0
  H  H105  1  0.63220000  0.32100000  0.73250000  1.0
  H  H106  1  0.47940000  0.04360000  0.61360000  1.0
  H  H107  1  0.67620000  0.33520000  0.83150000  1.0
  H  H108  1  0.31060000  0.07750000  0.24010000  1.0
  H  H109  1  0.82290000  0.18020000  0.84360000  1.0
  H  H110  1  0.19780000  0.95950000  0.33500000  1.0
  H  H111  1  0.77440000  0.17050000  0.74500000  1.0
  H  H112  1  0.28690000  0.05780000  0.65160000  1.0
  H  H113  1  0.70110000  0.63400000  0.95080000  1.0
  H  H114  1  0.17920000  0.08870000  0.45510000  1.0
  H  H115  1  0.80050000  0.65590000  0.14810000  1.0
  H  H116  1  0.07640000  0.31470000  0.01480000  1.0
  H  H117  1  0.44550000  0.29050000  0.61020000  1.0
  H  H118  1  0.97750000  0.38290000  0.96350000  1.0
  H  H119  1  0.86520000  0.43880000  0.83820000  1.0
  H  H120  1  0.45670000  0.33030000  0.45990000  1.0
  H  H121  1  0.13170000  0.01780000  0.50570000  1.0
  H  H122  1  0.65070000  0.70400000  0.99980000  1.0
  H  H123  1  0.07650000  0.38240000  0.16070000  1.0
  H  H124  1  0.64800000  0.52140000  0.73630000  1.0
  H  H125  1  0.85640000  0.58710000  0.10340000  1.0
  H  H126  1  0.33790000  0.13380000  0.60610000  1.0
  H  H127  1  0.54420000  0.36250000  0.65570000  1.0
  H  H128  1  0.55610000  0.39680000  0.51010000  1.0
  H  H129  1  0.13220000  0.17900000  0.23250000  1.0
  H  H130  1  0.97940000  0.45640000  0.11360000  1.0
  H  H131  1  0.17620000  0.16480000  0.33150000  1.0
  H  H132  1  0.81060000  0.42250000  0.74010000  1.0
  H  H133  1  0.32290000  0.31980000  0.34360000  1.0
  H  H134  1  0.69780000  0.54050000  0.83500000  1.0
  H  H135  1  0.27440000  0.32950000  0.24500000  1.0
  H  H136  1  0.78690000  0.55780000  0.65160000  1.0
  H  H137  1  0.20110000  0.13400000  0.95080000  1.0
  H  H138  1  0.67920000  0.58870000  0.45510000  1.0
  H  H139  1  0.30050000  0.15590000  0.14810000  1.0
  H  H140  1  0.57640000  0.81470000  0.01480000  1.0
  H  H141  1  0.94550000  0.79050000  0.61020000  1.0
  H  H142  1  0.47750000  0.88290000  0.96350000  1.0
  H  H143  1  0.36520000  0.93880000  0.83820000  1.0
  H  H144  1  0.95670000  0.83030000  0.45990000  1.0
  H  H145  1  0.63170000  0.51780000  0.50570000  1.0
  H  H146  1  0.15070000  0.20400000  0.99980000  1.0
  H  H147  1  0.57650000  0.88240000  0.16070000  1.0
  H  H148  1  0.14800000  0.02140000  0.73630000  1.0
  H  H149  1  0.35640000  0.08710000  0.10340000  1.0
  H  H150  1  0.83790000  0.63380000  0.60610000  1.0
  H  H151  1  0.04420000  0.86250000  0.65570000  1.0
  H  H152  1  0.05610000  0.89680000  0.51010000  1.0
  H  H153  1  0.63220000  0.67900000  0.23250000  1.0
  H  H154  1  0.47940000  0.95640000  0.11360000  1.0
  H  H155  1  0.67620000  0.66480000  0.33150000  1.0
  H  H156  1  0.31060000  0.92250000  0.74010000  1.0
  H  H157  1  0.82290000  0.81980000  0.34360000  1.0
  H  H158  1  0.19780000  0.04050000  0.83500000  1.0
  H  H159  1  0.77440000  0.82950000  0.24500000  1.0
  H  H160  1  0.71310000  0.05780000  0.84840000  1.0
  H  H161  1  0.29890000  0.63400000  0.54920000  1.0
  H  H162  1  0.82080000  0.08870000  0.04490000  1.0
  H  H163  1  0.19950000  0.65590000  0.35190000  1.0
  H  H164  1  0.92360000  0.31470000  0.48520000  1.0
  H  H165  1  0.55450000  0.29050000  0.88980000  1.0
  H  H166  1  0.02250000  0.38290000  0.53650000  1.0
  H  H167  1  0.13480000  0.43880000  0.66180000  1.0
  H  H168  1  0.54330000  0.33030000  0.04010000  1.0
  H  H169  1  0.86830000  0.01780000  0.99430000  1.0
  H  H170  1  0.34930000  0.70400000  0.50020000  1.0
  H  H171  1  0.92350000  0.38240000  0.33930000  1.0
  H  H172  1  0.35200000  0.52140000  0.76370000  1.0
  H  H173  1  0.14360000  0.58710000  0.39660000  1.0
  H  H174  1  0.66210000  0.13380000  0.89390000  1.0
  H  H175  1  0.45580000  0.36250000  0.84430000  1.0
  H  H176  1  0.44390000  0.39680000  0.98990000  1.0
  H  H177  1  0.86780000  0.17900000  0.26750000  1.0
  H  H178  1  0.02060000  0.45640000  0.38640000  1.0
  H  H179  1  0.82380000  0.16480000  0.16850000  1.0
  H  H180  1  0.18940000  0.42250000  0.75990000  1.0
  H  H181  1  0.67710000  0.31980000  0.15640000  1.0
  H  H182  1  0.30220000  0.54050000  0.66500000  1.0
  H  H183  1  0.72560000  0.32950000  0.25500000  1.0
  H  H184  1  0.21310000  0.55780000  0.84840000  1.0
  H  H185  1  0.79890000  0.13400000  0.54920000  1.0
  H  H186  1  0.32080000  0.58870000  0.04490000  1.0
  H  H187  1  0.69950000  0.15590000  0.35190000  1.0
  H  H188  1  0.42360000  0.81470000  0.48520000  1.0
  H  H189  1  0.05450000  0.79050000  0.88980000  1.0
  H  H190  1  0.52250000  0.88290000  0.53650000  1.0
  H  H191  1  0.63480000  0.93880000  0.66180000  1.0
  H  H192  1  0.04330000  0.83030000  0.04010000  1.0
  H  H193  1  0.36830000  0.51780000  0.99430000  1.0
  H  H194  1  0.84930000  0.20400000  0.50020000  1.0
  H  H195  1  0.42350000  0.88240000  0.33930000  1.0
  H  H196  1  0.85200000  0.02140000  0.76370000  1.0
  H  H197  1  0.64360000  0.08710000  0.39660000  1.0
  H  H198  1  0.16210000  0.63380000  0.89390000  1.0
  H  H199  1  0.95580000  0.86250000  0.84430000  1.0
  H  H200  1  0.94390000  0.89680000  0.98990000  1.0
  H  H201  1  0.36780000  0.67900000  0.26750000  1.0
  H  H202  1  0.52060000  0.95640000  0.38640000  1.0
  H  H203  1  0.32380000  0.66480000  0.16850000  1.0
  H  H204  1  0.68940000  0.92250000  0.75990000  1.0
  H  H205  1  0.17710000  0.81980000  0.15640000  1.0
  H  H206  1  0.80220000  0.04050000  0.66500000  1.0
  H  H207  1  0.22560000  0.82950000  0.25500000  1.0
  C  C208  1  0.62370000  0.74280000  0.50240000  1.0
  C  C209  1  0.73510000  0.93510000  0.38810000  1.0
  C  C210  1  0.27800000  0.36230000  0.00920000  1.0
  C  C211  1  0.79840000  0.91580000  0.50500000  1.0
  C  C212  1  0.21950000  0.34830000  0.89190000  1.0
  C  C213  1  0.55980000  0.69780000  0.47020000  1.0
  C  C214  1  0.09760000  0.53040000  0.00110000  1.0
  C  C215  1  0.94360000  0.65700000  0.96510000  1.0
  C  C216  1  0.53290000  0.68800000  0.41100000  1.0
  C  C217  1  0.00310000  0.61620000  0.99640000  1.0
  C  C218  1  0.74340000  0.76280000  0.65170000  1.0
  C  C219  1  0.18040000  0.49780000  0.08830000  1.0
  C  C220  1  0.17890000  0.54380000  0.18160000  1.0
  C  C221  1  0.52600000  0.66490000  0.50020000  1.0
  C  C222  1  0.21550000  0.39870000  0.97770000  1.0
  C  C223  1  0.82620000  0.95910000  0.47410000  1.0
  C  C224  1  0.70950000  0.77330000  0.58760000  1.0
  C  C225  1  0.03310000  0.57390000  0.96700000  1.0
  C  C226  1  0.30780000  0.32040000  0.97920000  1.0
  C  C227  1  0.73620000  0.87910000  0.47490000  1.0
  C  C228  1  0.94330000  0.61660000  0.87940000  1.0
  C  C229  1  0.70560000  0.82780000  0.50520000  1.0
  C  C230  1  0.30780000  0.49510000  0.24290000  1.0
  C  C231  1  0.18280000  0.44850000  0.00690000  1.0
  C  C232  1  0.18560000  0.39050000  0.91840000  1.0
  C  C233  1  0.70390000  0.88960000  0.41520000  1.0
  C  C234  1  0.47310000  0.64560000  0.38400000  1.0
  C  C235  1  0.46650000  0.62500000  0.46970000  1.0
  C  C236  1  0.82850000  0.79330000  0.74480000  1.0
  C  C237  1  0.21220000  0.50790000  0.15200000  1.0
  C  C238  1  0.00230000  0.57290000  0.90730000  1.0
  C  C239  1  0.80220000  0.80280000  0.68520000  1.0
  C  C240  1  0.21220000  0.55320000  0.24060000  1.0
  C  C241  1  0.71520000  0.71060000  0.67820000  1.0
  C  C242  1  0.27830000  0.48330000  0.18340000  1.0
  C  C243  1  0.74490000  0.70500000  0.73740000  1.0
  C  C244  1  0.12370000  0.24280000  0.50240000  1.0
  C  C245  1  0.23510000  0.43510000  0.38810000  1.0
  C  C246  1  0.77800000  0.86230000  0.00920000  1.0
  C  C247  1  0.29840000  0.41580000  0.50500000  1.0
  C  C248  1  0.71950000  0.84830000  0.89190000  1.0
  C  C249  1  0.05980000  0.19780000  0.47020000  1.0
  C  C250  1  0.59760000  0.03040000  0.00110000  1.0
  C  C251  1  0.44360000  0.15700000  0.96510000  1.0
  C  C252  1  0.03290000  0.18800000  0.41100000  1.0
  C  C253  1  0.50310000  0.11620000  0.99640000  1.0
  C  C254  1  0.24340000  0.26280000  0.65170000  1.0
  C  C255  1  0.68040000  0.99780000  0.08830000  1.0
  C  C256  1  0.67890000  0.04380000  0.18160000  1.0
  C  C257  1  0.02600000  0.16490000  0.50020000  1.0
  C  C258  1  0.71550000  0.89870000  0.97770000  1.0
  C  C259  1  0.32620000  0.45910000  0.47410000  1.0
  C  C260  1  0.20950000  0.27330000  0.58760000  1.0
  C  C261  1  0.53310000  0.07390000  0.96700000  1.0
  C  C262  1  0.80780000  0.82040000  0.97920000  1.0
  C  C263  1  0.23620000  0.37910000  0.47490000  1.0
  C  C264  1  0.44330000  0.11660000  0.87940000  1.0
  C  C265  1  0.20560000  0.32780000  0.50520000  1.0
  C  C266  1  0.80780000  0.99510000  0.24290000  1.0
  C  C267  1  0.68280000  0.94850000  0.00690000  1.0
  C  C268  1  0.68560000  0.89050000  0.91840000  1.0
  C  C269  1  0.20390000  0.38960000  0.41520000  1.0
  C  C270  1  0.97310000  0.14560000  0.38400000  1.0
  C  C271  1  0.96650000  0.12500000  0.46970000  1.0
  C  C272  1  0.32850000  0.29330000  0.74480000  1.0
  C  C273  1  0.71220000  0.00790000  0.15200000  1.0
  C  C274  1  0.50230000  0.07290000  0.90730000  1.0
  C  C275  1  0.30220000  0.30280000  0.68520000  1.0
  C  C276  1  0.71220000  0.05320000  0.24060000  1.0
  C  C277  1  0.21520000  0.21060000  0.67820000  1.0
  C  C278  1  0.77830000  0.98330000  0.18340000  1.0
  C  C279  1  0.24490000  0.20500000  0.73740000  1.0
  C  C280  1  0.37630000  0.74280000  0.99760000  1.0
  C  C281  1  0.26490000  0.93510000  0.11190000  1.0
  C  C282  1  0.72200000  0.36230000  0.49080000  1.0
  C  C283  1  0.20160000  0.91580000  0.99500000  1.0
  C  C284  1  0.78050000  0.34830000  0.60810000  1.0
  C  C285  1  0.44020000  0.69780000  0.02980000  1.0
  C  C286  1  0.90240000  0.53040000  0.49890000  1.0
  C  C287  1  0.05640000  0.65700000  0.53490000  1.0
  C  C288  1  0.46710000  0.68800000  0.08900000  1.0
  C  C289  1  0.99690000  0.61620000  0.50360000  1.0
  C  C290  1  0.25660000  0.76280000  0.84830000  1.0
  C  C291  1  0.81960000  0.49780000  0.41170000  1.0
  C  C292  1  0.82110000  0.54380000  0.31840000  1.0
  C  C293  1  0.47400000  0.66490000  0.99980000  1.0
  C  C294  1  0.78450000  0.39870000  0.52230000  1.0
  C  C295  1  0.17380000  0.95910000  0.02590000  1.0
  C  C296  1  0.29050000  0.77330000  0.91240000  1.0
  C  C297  1  0.96690000  0.57390000  0.53300000  1.0
  C  C298  1  0.69220000  0.32040000  0.52080000  1.0
  C  C299  1  0.26380000  0.87910000  0.02510000  1.0
  C  C300  1  0.05670000  0.61660000  0.62060000  1.0
  C  C301  1  0.29440000  0.82780000  0.99480000  1.0
  C  C302  1  0.69220000  0.49510000  0.25710000  1.0
  C  C303  1  0.81720000  0.44850000  0.49310000  1.0
  C  C304  1  0.81440000  0.39050000  0.58160000  1.0
  C  C305  1  0.29610000  0.88960000  0.08480000  1.0
  C  C306  1  0.52690000  0.64560000  0.11600000  1.0
  C  C307  1  0.53350000  0.62500000  0.03030000  1.0
  C  C308  1  0.17150000  0.79330000  0.75520000  1.0
  C  C309  1  0.78780000  0.50790000  0.34800000  1.0
  C  C310  1  0.99770000  0.57290000  0.59270000  1.0
  C  C311  1  0.19780000  0.80280000  0.81480000  1.0
  C  C312  1  0.78780000  0.55320000  0.25940000  1.0
  C  C313  1  0.28480000  0.71060000  0.82180000  1.0
  C  C314  1  0.72170000  0.48330000  0.31660000  1.0
  C  C315  1  0.25510000  0.70500000  0.76260000  1.0
  C  C316  1  0.87630000  0.24280000  0.99760000  1.0
  C  C317  1  0.76490000  0.43510000  0.11190000  1.0
  C  C318  1  0.22200000  0.86230000  0.49080000  1.0
  C  C319  1  0.70160000  0.41580000  0.99500000  1.0
  C  C320  1  0.28050000  0.84830000  0.60810000  1.0
  C  C321  1  0.94020000  0.19780000  0.02980000  1.0
  C  C322  1  0.40240000  0.03040000  0.49890000  1.0
  C  C323  1  0.55640000  0.15700000  0.53490000  1.0
  C  C324  1  0.96710000  0.18800000  0.08900000  1.0
  C  C325  1  0.49690000  0.11620000  0.50360000  1.0
  C  C326  1  0.75660000  0.26280000  0.84830000  1.0
  C  C327  1  0.31960000  0.99780000  0.41170000  1.0
  C  C328  1  0.32110000  0.04380000  0.31840000  1.0
  C  C329  1  0.97400000  0.16490000  0.99980000  1.0
  C  C330  1  0.28450000  0.89870000  0.52230000  1.0
  C  C331  1  0.67380000  0.45910000  0.02590000  1.0
  C  C332  1  0.79050000  0.27330000  0.91240000  1.0
  C  C333  1  0.46690000  0.07390000  0.53300000  1.0
  C  C334  1  0.19220000  0.82040000  0.52080000  1.0
  C  C335  1  0.76380000  0.37910000  0.02510000  1.0
  C  C336  1  0.55670000  0.11660000  0.62060000  1.0
  C  C337  1  0.79440000  0.32780000  0.99480000  1.0
  C  C338  1  0.19220000  0.99510000  0.25710000  1.0
  C  C339  1  0.31720000  0.94850000  0.49310000  1.0
  C  C340  1  0.31440000  0.89050000  0.58160000  1.0
  C  C341  1  0.79610000  0.38960000  0.08480000  1.0
  C  C342  1  0.02690000  0.14560000  0.11600000  1.0
  C  C343  1  0.03350000  0.12500000  0.03030000  1.0
  C  C344  1  0.67150000  0.29330000  0.75520000  1.0
  C  C345  1  0.28780000  0.00790000  0.34800000  1.0
  C  C346  1  0.49770000  0.07290000  0.59270000  1.0
  C  C347  1  0.69780000  0.30280000  0.81480000  1.0
  C  C348  1  0.28780000  0.05320000  0.25940000  1.0
  C  C349  1  0.78480000  0.21060000  0.82180000  1.0
  C  C350  1  0.22170000  0.98330000  0.31660000  1.0
  C  C351  1  0.75510000  0.20500000  0.76260000  1.0
  C  C352  1  0.37630000  0.25720000  0.49760000  1.0
  C  C353  1  0.26490000  0.06490000  0.61190000  1.0
  C  C354  1  0.72200000  0.63770000  0.99080000  1.0
  C  C355  1  0.20160000  0.08420000  0.49500000  1.0
  C  C356  1  0.78050000  0.65170000  0.10810000  1.0
  C  C357  1  0.44020000  0.30220000  0.52980000  1.0
  C  C358  1  0.90240000  0.46960000  0.99890000  1.0
  C  C359  1  0.05640000  0.34300000  0.03490000  1.0
  C  C360  1  0.46710000  0.31200000  0.58900000  1.0
  C  C361  1  0.99690000  0.38380000  0.00360000  1.0
  C  C362  1  0.25660000  0.23720000  0.34830000  1.0
  C  C363  1  0.81960000  0.50220000  0.91170000  1.0
  C  C364  1  0.82110000  0.45620000  0.81840000  1.0
  C  C365  1  0.47400000  0.33510000  0.49980000  1.0
  C  C366  1  0.78450000  0.60130000  0.02230000  1.0
  C  C367  1  0.17380000  0.04090000  0.52590000  1.0
  C  C368  1  0.29050000  0.22670000  0.41240000  1.0
  C  C369  1  0.96690000  0.42610000  0.03300000  1.0
  C  C370  1  0.69220000  0.67960000  0.02080000  1.0
  C  C371  1  0.26380000  0.12090000  0.52510000  1.0
  C  C372  1  0.05670000  0.38340000  0.12060000  1.0
  C  C373  1  0.29440000  0.17220000  0.49480000  1.0
  C  C374  1  0.69220000  0.50490000  0.75710000  1.0
  C  C375  1  0.81720000  0.55150000  0.99310000  1.0
  C  C376  1  0.81440000  0.60950000  0.08160000  1.0
  C  C377  1  0.29610000  0.11040000  0.58480000  1.0
  C  C378  1  0.52690000  0.35440000  0.61600000  1.0
  C  C379  1  0.53350000  0.37500000  0.53030000  1.0
  C  C380  1  0.17150000  0.20670000  0.25520000  1.0
  C  C381  1  0.78780000  0.49210000  0.84800000  1.0
  C  C382  1  0.99770000  0.42710000  0.09270000  1.0
  C  C383  1  0.19780000  0.19720000  0.31480000  1.0
  C  C384  1  0.78780000  0.44680000  0.75940000  1.0
  C  C385  1  0.28480000  0.28940000  0.32180000  1.0
  C  C386  1  0.72170000  0.51670000  0.81660000  1.0
  C  C387  1  0.25510000  0.29500000  0.26260000  1.0
  C  C388  1  0.87630000  0.75720000  0.49760000  1.0
  C  C389  1  0.76490000  0.56490000  0.61190000  1.0
  C  C390  1  0.22200000  0.13770000  0.99080000  1.0
  C  C391  1  0.70160000  0.58420000  0.49500000  1.0
  C  C392  1  0.28050000  0.15170000  0.10810000  1.0
  C  C393  1  0.94020000  0.80220000  0.52980000  1.0
  C  C394  1  0.40240000  0.96960000  0.99890000  1.0
  C  C395  1  0.55640000  0.84300000  0.03490000  1.0
  C  C396  1  0.96710000  0.81200000  0.58900000  1.0
  C  C397  1  0.49690000  0.88380000  0.00360000  1.0
  C  C398  1  0.75660000  0.73720000  0.34830000  1.0
  C  C399  1  0.31960000  0.00220000  0.91170000  1.0
  C  C400  1  0.32110000  0.95620000  0.81840000  1.0
  C  C401  1  0.97400000  0.83510000  0.49980000  1.0
  C  C402  1  0.28450000  0.10130000  0.02230000  1.0
  C  C403  1  0.67380000  0.54090000  0.52590000  1.0
  C  C404  1  0.79050000  0.72670000  0.41240000  1.0
  C  C405  1  0.46690000  0.92610000  0.03300000  1.0
  C  C406  1  0.19220000  0.17960000  0.02080000  1.0
  C  C407  1  0.76380000  0.62090000  0.52510000  1.0
  C  C408  1  0.55670000  0.88340000  0.12060000  1.0
  C  C409  1  0.79440000  0.67220000  0.49480000  1.0
  C  C410  1  0.19220000  0.00490000  0.75710000  1.0
  C  C411  1  0.31720000  0.05150000  0.99310000  1.0
  C  C412  1  0.31440000  0.10950000  0.08160000  1.0
  C  C413  1  0.79610000  0.61040000  0.58480000  1.0
  C  C414  1  0.02690000  0.85440000  0.61600000  1.0
  C  C415  1  0.03350000  0.87500000  0.53030000  1.0
  C  C416  1  0.67150000  0.70670000  0.25520000  1.0
  C  C417  1  0.28780000  0.99210000  0.84800000  1.0
  C  C418  1  0.49770000  0.92710000  0.09270000  1.0
  C  C419  1  0.69780000  0.69720000  0.31480000  1.0
  C  C420  1  0.28780000  0.94680000  0.75940000  1.0
  C  C421  1  0.78480000  0.78940000  0.32180000  1.0
  C  C422  1  0.22170000  0.01670000  0.81660000  1.0
  C  C423  1  0.75510000  0.79500000  0.26260000  1.0
  C  C424  1  0.62370000  0.25720000  0.00240000  1.0
  C  C425  1  0.73510000  0.06490000  0.88810000  1.0
  C  C426  1  0.27800000  0.63770000  0.50920000  1.0
  C  C427  1  0.79840000  0.08420000  0.00500000  1.0
  C  C428  1  0.21950000  0.65170000  0.39190000  1.0
  C  C429  1  0.55980000  0.30220000  0.97020000  1.0
  C  C430  1  0.09760000  0.46960000  0.50110000  1.0
  C  C431  1  0.94360000  0.34300000  0.46510000  1.0
  C  C432  1  0.53290000  0.31200000  0.91100000  1.0
  C  C433  1  0.00310000  0.38380000  0.49640000  1.0
  C  C434  1  0.74340000  0.23720000  0.15170000  1.0
  C  C435  1  0.18040000  0.50220000  0.58830000  1.0
  C  C436  1  0.17890000  0.45620000  0.68160000  1.0
  C  C437  1  0.52600000  0.33510000  0.00020000  1.0
  C  C438  1  0.21550000  0.60130000  0.47770000  1.0
  C  C439  1  0.82620000  0.04090000  0.97410000  1.0
  C  C440  1  0.70950000  0.22670000  0.08760000  1.0
  C  C441  1  0.03310000  0.42610000  0.46700000  1.0
  C  C442  1  0.30780000  0.67960000  0.47920000  1.0
  C  C443  1  0.73620000  0.12090000  0.97490000  1.0
  C  C444  1  0.94330000  0.38340000  0.37940000  1.0
  C  C445  1  0.70560000  0.17220000  0.00520000  1.0
  C  C446  1  0.30780000  0.50490000  0.74290000  1.0
  C  C447  1  0.18280000  0.55150000  0.50690000  1.0
  C  C448  1  0.18560000  0.60950000  0.41840000  1.0
  C  C449  1  0.70390000  0.11040000  0.91520000  1.0
  C  C450  1  0.47310000  0.35440000  0.88400000  1.0
  C  C451  1  0.46650000  0.37500000  0.96970000  1.0
  C  C452  1  0.82850000  0.20670000  0.24480000  1.0
  C  C453  1  0.21220000  0.49210000  0.65200000  1.0
  C  C454  1  0.00230000  0.42710000  0.40730000  1.0
  C  C455  1  0.80220000  0.19720000  0.18520000  1.0
  C  C456  1  0.21220000  0.44680000  0.74060000  1.0
  C  C457  1  0.71520000  0.28940000  0.17820000  1.0
  C  C458  1  0.27830000  0.51670000  0.68340000  1.0
  C  C459  1  0.74490000  0.29500000  0.23740000  1.0
  C  C460  1  0.12370000  0.75720000  0.00240000  1.0
  C  C461  1  0.23510000  0.56490000  0.88810000  1.0
  C  C462  1  0.77800000  0.13770000  0.50920000  1.0
  C  C463  1  0.29840000  0.58420000  0.00500000  1.0
  C  C464  1  0.71950000  0.15170000  0.39190000  1.0
  C  C465  1  0.05980000  0.80220000  0.97020000  1.0
  C  C466  1  0.59760000  0.96960000  0.50110000  1.0
  C  C467  1  0.44360000  0.84300000  0.46510000  1.0
  C  C468  1  0.03290000  0.81200000  0.91100000  1.0
  C  C469  1  0.50310000  0.88380000  0.49640000  1.0
  C  C470  1  0.24340000  0.73720000  0.15170000  1.0
  C  C471  1  0.68040000  0.00220000  0.58830000  1.0
  C  C472  1  0.67890000  0.95620000  0.68160000  1.0
  C  C473  1  0.02600000  0.83510000  0.00020000  1.0
  C  C474  1  0.71550000  0.10130000  0.47770000  1.0
  C  C475  1  0.32620000  0.54090000  0.97410000  1.0
  C  C476  1  0.20950000  0.72670000  0.08760000  1.0
  C  C477  1  0.53310000  0.92610000  0.46700000  1.0
  C  C478  1  0.80780000  0.17960000  0.47920000  1.0
  C  C479  1  0.23620000  0.62090000  0.97490000  1.0
  C  C480  1  0.44330000  0.88340000  0.37940000  1.0
  C  C481  1  0.20560000  0.67220000  0.00520000  1.0
  C  C482  1  0.80780000  0.00490000  0.74290000  1.0
  C  C483  1  0.68280000  0.05150000  0.50690000  1.0
  C  C484  1  0.68560000  0.10950000  0.41840000  1.0
  C  C485  1  0.20390000  0.61040000  0.91520000  1.0
  C  C486  1  0.97310000  0.85440000  0.88400000  1.0
  C  C487  1  0.96650000  0.87500000  0.96970000  1.0
  C  C488  1  0.32850000  0.70670000  0.24480000  1.0
  C  C489  1  0.71220000  0.99210000  0.65200000  1.0
  C  C490  1  0.50230000  0.92710000  0.40730000  1.0
  C  C491  1  0.30220000  0.69720000  0.18520000  1.0
  C  C492  1  0.71220000  0.94680000  0.74060000  1.0
  C  C493  1  0.21520000  0.78940000  0.17820000  1.0
  C  C494  1  0.77830000  0.01670000  0.68340000  1.0
  C  C495  1  0.24490000  0.79500000  0.23740000  1.0
  N  N496  1  0.73840000  0.82240000  0.56321000  1.0
  N  N497  1  0.27990000  0.31310000  0.92128000  1.0
  N  N498  1  0.12260000  0.53710000  0.05882000  1.0
  N  N499  1  0.43920000  0.61580000  0.41221000  1.0
  N  N500  1  0.91320000  0.65780000  0.90741000  1.0
  N  N501  1  0.12630000  0.48890000  0.97322000  1.0
  N  N502  1  0.64810000  0.78980000  0.47281000  1.0
  N  N503  1  0.79580000  0.96960000  0.41668000  1.0
  N  N504  1  0.21150000  0.45010000  0.06477000  1.0
  N  N505  1  0.80040000  0.74670000  0.77130000  1.0
  N  N506  1  0.27580000  0.52920000  0.27180000  1.0
  N  N507  1  0.65300000  0.73200000  0.55932000  1.0
  N  N508  1  0.23840000  0.32240000  0.56321000  1.0
  N  N509  1  0.77990000  0.81310000  0.92128000  1.0
  N  N510  1  0.62260000  0.03710000  0.05882000  1.0
  N  N511  1  0.93920000  0.11580000  0.41221000  1.0
  N  N512  1  0.41320000  0.15780000  0.90741000  1.0
  N  N513  1  0.62630000  0.98890000  0.97322000  1.0
  N  N514  1  0.14810000  0.28980000  0.47281000  1.0
  N  N515  1  0.29580000  0.46960000  0.41668000  1.0
  N  N516  1  0.71150000  0.95010000  0.06477000  1.0
  N  N517  1  0.30040000  0.24670000  0.77130000  1.0
  N  N518  1  0.77580000  0.02920000  0.27180000  1.0
  N  N519  1  0.15300000  0.23200000  0.55932000  1.0
  N  N520  1  0.26160000  0.82240000  0.93679000  1.0
  N  N521  1  0.72010000  0.31310000  0.57872000  1.0
  N  N522  1  0.87740000  0.53710000  0.44118000  1.0
  N  N523  1  0.56080000  0.61580000  0.08779000  1.0
  N  N524  1  0.08680000  0.65780000  0.59259000  1.0
  N  N525  1  0.87370000  0.48890000  0.52678000  1.0
  N  N526  1  0.35190000  0.78980000  0.02719000  1.0
  N  N527  1  0.20420000  0.96960000  0.08332000  1.0
  N  N528  1  0.78850000  0.45010000  0.43523000  1.0
  N  N529  1  0.19960000  0.74670000  0.72870000  1.0
  N  N530  1  0.72420000  0.52920000  0.22820000  1.0
  N  N531  1  0.34700000  0.73200000  0.94068000  1.0
  N  N532  1  0.76160000  0.32240000  0.93679000  1.0
  N  N533  1  0.22010000  0.81310000  0.57872000  1.0
  N  N534  1  0.37740000  0.03710000  0.44118000  1.0
  N  N535  1  0.06080000  0.11580000  0.08779000  1.0
  N  N536  1  0.58680000  0.15780000  0.59259000  1.0
  N  N537  1  0.37370000  0.98890000  0.52678000  1.0
  N  N538  1  0.85190000  0.28980000  0.02719000  1.0
  N  N539  1  0.70420000  0.46960000  0.08332000  1.0
  N  N540  1  0.28850000  0.95010000  0.43523000  1.0
  N  N541  1  0.69960000  0.24670000  0.72870000  1.0
  N  N542  1  0.22420000  0.02920000  0.22820000  1.0
  N  N543  1  0.84700000  0.23200000  0.94068000  1.0
  N  N544  1  0.26160000  0.17760000  0.43679000  1.0
  N  N545  1  0.72010000  0.68690000  0.07872000  1.0
  N  N546  1  0.87740000  0.46290000  0.94118000  1.0
  N  N547  1  0.56080000  0.38420000  0.58779000  1.0
  N  N548  1  0.08680000  0.34220000  0.09259000  1.0
  N  N549  1  0.87370000  0.51110000  0.02678000  1.0
  N  N550  1  0.35190000  0.21020000  0.52719000  1.0
  N  N551  1  0.20420000  0.03040000  0.58332000  1.0
  N  N552  1  0.78850000  0.54990000  0.93523000  1.0
  N  N553  1  0.19960000  0.25330000  0.22870000  1.0
  N  N554  1  0.72420000  0.47080000  0.72820000  1.0
  N  N555  1  0.34700000  0.26800000  0.44068000  1.0
  N  N556  1  0.76160000  0.67760000  0.43679000  1.0
  N  N557  1  0.22010000  0.18690000  0.07872000  1.0
  N  N558  1  0.37740000  0.96290000  0.94118000  1.0
  N  N559  1  0.06080000  0.88420000  0.58779000  1.0
  N  N560  1  0.58680000  0.84220000  0.09259000  1.0
  N  N561  1  0.37370000  0.01110000  0.02678000  1.0
  N  N562  1  0.85190000  0.71020000  0.52719000  1.0
  N  N563  1  0.70420000  0.53040000  0.58332000  1.0
  N  N564  1  0.28850000  0.04990000  0.93523000  1.0
  N  N565  1  0.69960000  0.75330000  0.22870000  1.0
  N  N566  1  0.22420000  0.97080000  0.72820000  1.0
  N  N567  1  0.84700000  0.76800000  0.44068000  1.0
  N  N568  1  0.73840000  0.17760000  0.06321000  1.0
  N  N569  1  0.27990000  0.68690000  0.42128000  1.0
  N  N570  1  0.12260000  0.46290000  0.55882000  1.0
  N  N571  1  0.43920000  0.38420000  0.91221000  1.0
  N  N572  1  0.91320000  0.34220000  0.40741000  1.0
  N  N573  1  0.12630000  0.51110000  0.47322000  1.0
  N  N574  1  0.64810000  0.21020000  0.97281000  1.0
  N  N575  1  0.79580000  0.03040000  0.91668000  1.0
  N  N576  1  0.21150000  0.54990000  0.56477000  1.0
  N  N577  1  0.80040000  0.25330000  0.27130000  1.0
  N  N578  1  0.27580000  0.47080000  0.77180000  1.0
  N  N579  1  0.65300000  0.26800000  0.05932000  1.0
  N  N580  1  0.23840000  0.67760000  0.06321000  1.0
  N  N581  1  0.77990000  0.18690000  0.42128000  1.0
  N  N582  1  0.62260000  0.96290000  0.55882000  1.0
  N  N583  1  0.93920000  0.88420000  0.91221000  1.0
  N  N584  1  0.41320000  0.84220000  0.40741000  1.0
  N  N585  1  0.62630000  0.01110000  0.47322000  1.0
  N  N586  1  0.14810000  0.71020000  0.97281000  1.0
  N  N587  1  0.29580000  0.53040000  0.91668000  1.0
  N  N588  1  0.71150000  0.04990000  0.56477000  1.0
  N  N589  1  0.30040000  0.75330000  0.27130000  1.0
  N  N590  1  0.77580000  0.97080000  0.77180000  1.0
  N  N591  1  0.15300000  0.76800000  0.05932000  1.0
