# generated using pymatgen
data_AgH12(C3N)6
_symmetry_space_group_name_H-M   'P 1'
_cell_length_a   21.93810000
_cell_length_b   16.71980000
_cell_length_c   25.50370000
_cell_angle_alpha   90.00000000
_cell_angle_beta   115.07400000
_cell_angle_gamma   90.00000000
_symmetry_Int_Tables_number   1
_chemical_formula_structural   AgH12(C3N)6
_chemical_formula_sum   'Ag16 H192 C288 N96'
_cell_volume   8473.19096901
_cell_formula_units_Z   16
loop_
 _symmetry_equiv_pos_site_id
 _symmetry_equiv_pos_as_xyz
  1  'x, y, z'
loop_
 _atom_site_type_symbol
 _atom_site_label
 _atom_site_symmetry_multiplicity
 _atom_site_fract_x
 _atom_site_fract_y
 _atom_site_fract_z
 _atom_site_occupancy
  Ag  Ag0  1  0.84424000  0.04367000  0.36665000  1.0
  Ag  Ag1  1  0.32144000  0.24312000  0.86622000  1.0
  Ag  Ag2  1  0.34424000  0.54367000  0.36665000  1.0
  Ag  Ag3  1  0.82144000  0.74312000  0.86622000  1.0
  Ag  Ag4  1  0.15576000  0.04367000  0.13335000  1.0
  Ag  Ag5  1  0.67856000  0.24312000  0.63378000  1.0
  Ag  Ag6  1  0.65576000  0.54367000  0.13335000  1.0
  Ag  Ag7  1  0.17856000  0.74312000  0.63378000  1.0
  Ag  Ag8  1  0.15576000  0.95633000  0.63335000  1.0
  Ag  Ag9  1  0.67856000  0.75688000  0.13378000  1.0
  Ag  Ag10  1  0.65576000  0.45633000  0.63335000  1.0
  Ag  Ag11  1  0.17856000  0.25688000  0.13378000  1.0
  Ag  Ag12  1  0.84424000  0.95633000  0.86665000  1.0
  Ag  Ag13  1  0.32144000  0.75688000  0.36622000  1.0
  Ag  Ag14  1  0.34424000  0.45633000  0.86665000  1.0
  Ag  Ag15  1  0.82144000  0.25688000  0.36622000  1.0
  H  H16  1  0.79700000  0.86540000  0.04750000  1.0
  H  H17  1  0.31930000  0.41410000  0.54340000  1.0
  H  H18  1  0.05410000  0.21140000  0.38740000  1.0
  H  H19  1  0.52240000  0.11600000  0.03430000  1.0
  H  H20  1  0.42380000  0.18360000  0.98240000  1.0
  H  H21  1  0.70020000  0.84240000  0.84990000  1.0
  H  H22  1  0.63460000  0.06210000  0.15870000  1.0
  H  H23  1  0.04210000  0.17120000  0.53700000  1.0
  H  H24  1  0.21440000  0.44160000  0.34710000  1.0
  H  H25  1  0.16160000  0.36910000  0.39180000  1.0
  H  H26  1  0.84720000  0.79450000  0.99920000  1.0
  H  H27  1  0.64360000  0.91230000  0.89410000  1.0
  H  H28  1  0.36720000  0.48090000  0.49300000  1.0
  H  H29  1  0.94540000  0.10410000  0.48770000  1.0
  H  H30  1  0.95490000  0.14140000  0.34150000  1.0
  H  H31  1  0.84990000  0.97700000  0.26130000  1.0
  H  H32  1  0.51830000  0.04090000  0.88360000  1.0
  H  H33  1  0.68750000  0.07720000  0.25700000  1.0
  H  H34  1  0.22710000  0.17100000  0.75230000  1.0
  H  H35  1  0.17510000  0.18520000  0.65500000  1.0
  H  H36  1  0.80190000  0.96020000  0.16340000  1.0
  H  H37  1  0.42460000  0.11760000  0.83760000  1.0
  H  H38  1  0.32490000  0.33120000  0.66610000  1.0
  H  H39  1  0.36680000  0.31760000  0.76520000  1.0
  H  H40  1  0.29700000  0.36540000  0.04750000  1.0
  H  H41  1  0.81930000  0.91410000  0.54340000  1.0
  H  H42  1  0.55410000  0.71140000  0.38740000  1.0
  H  H43  1  0.02240000  0.61600000  0.03430000  1.0
  H  H44  1  0.92380000  0.68360000  0.98240000  1.0
  H  H45  1  0.20020000  0.34240000  0.84990000  1.0
  H  H46  1  0.13460000  0.56210000  0.15870000  1.0
  H  H47  1  0.54210000  0.67120000  0.53700000  1.0
  H  H48  1  0.71440000  0.94160000  0.34710000  1.0
  H  H49  1  0.66160000  0.86910000  0.39180000  1.0
  H  H50  1  0.34720000  0.29450000  0.99920000  1.0
  H  H51  1  0.14360000  0.41230000  0.89410000  1.0
  H  H52  1  0.86720000  0.98090000  0.49300000  1.0
  H  H53  1  0.44540000  0.60410000  0.48770000  1.0
  H  H54  1  0.45490000  0.64140000  0.34150000  1.0
  H  H55  1  0.34990000  0.47700000  0.26130000  1.0
  H  H56  1  0.01830000  0.54090000  0.88360000  1.0
  H  H57  1  0.18750000  0.57720000  0.25700000  1.0
  H  H58  1  0.72710000  0.67100000  0.75230000  1.0
  H  H59  1  0.67510000  0.68520000  0.65500000  1.0
  H  H60  1  0.30190000  0.46020000  0.16340000  1.0
  H  H61  1  0.92460000  0.61760000  0.83760000  1.0
  H  H62  1  0.82490000  0.83120000  0.66610000  1.0
  H  H63  1  0.86680000  0.81760000  0.76520000  1.0
  H  H64  1  0.20300000  0.86540000  0.45250000  1.0
  H  H65  1  0.68070000  0.41410000  0.95660000  1.0
  H  H66  1  0.94590000  0.21140000  0.11260000  1.0
  H  H67  1  0.47760000  0.11600000  0.46570000  1.0
  H  H68  1  0.57620000  0.18360000  0.51760000  1.0
  H  H69  1  0.29980000  0.84240000  0.65010000  1.0
  H  H70  1  0.36540000  0.06210000  0.34130000  1.0
  H  H71  1  0.95790000  0.17120000  0.96300000  1.0
  H  H72  1  0.78560000  0.44160000  0.15290000  1.0
  H  H73  1  0.83840000  0.36910000  0.10820000  1.0
  H  H74  1  0.15280000  0.79450000  0.50080000  1.0
  H  H75  1  0.35640000  0.91230000  0.60590000  1.0
  H  H76  1  0.63280000  0.48090000  0.00700000  1.0
  H  H77  1  0.05460000  0.10410000  0.01230000  1.0
  H  H78  1  0.04510000  0.14140000  0.15850000  1.0
  H  H79  1  0.15010000  0.97700000  0.23870000  1.0
  H  H80  1  0.48170000  0.04090000  0.61640000  1.0
  H  H81  1  0.31250000  0.07720000  0.24300000  1.0
  H  H82  1  0.77290000  0.17100000  0.74770000  1.0
  H  H83  1  0.82490000  0.18520000  0.84500000  1.0
  H  H84  1  0.19810000  0.96020000  0.33660000  1.0
  H  H85  1  0.57540000  0.11760000  0.66240000  1.0
  H  H86  1  0.67510000  0.33120000  0.83390000  1.0
  H  H87  1  0.63320000  0.31760000  0.73480000  1.0
  H  H88  1  0.70300000  0.36540000  0.45250000  1.0
  H  H89  1  0.18070000  0.91410000  0.95660000  1.0
  H  H90  1  0.44590000  0.71140000  0.11260000  1.0
  H  H91  1  0.97760000  0.61600000  0.46570000  1.0
  H  H92  1  0.07620000  0.68360000  0.51760000  1.0
  H  H93  1  0.79980000  0.34240000  0.65010000  1.0
  H  H94  1  0.86540000  0.56210000  0.34130000  1.0
  H  H95  1  0.45790000  0.67120000  0.96300000  1.0
  H  H96  1  0.28560000  0.94160000  0.15290000  1.0
  H  H97  1  0.33840000  0.86910000  0.10820000  1.0
  H  H98  1  0.65280000  0.29450000  0.50080000  1.0
  H  H99  1  0.85640000  0.41230000  0.60590000  1.0
  H  H100  1  0.13280000  0.98090000  0.00700000  1.0
  H  H101  1  0.55460000  0.60410000  0.01230000  1.0
  H  H102  1  0.54510000  0.64140000  0.15850000  1.0
  H  H103  1  0.65010000  0.47700000  0.23870000  1.0
  H  H104  1  0.98170000  0.54090000  0.61640000  1.0
  H  H105  1  0.81250000  0.57720000  0.24300000  1.0
  H  H106  1  0.27290000  0.67100000  0.74770000  1.0
  H  H107  1  0.32490000  0.68520000  0.84500000  1.0
  H  H108  1  0.69810000  0.46020000  0.33660000  1.0
  H  H109  1  0.07540000  0.61760000  0.66240000  1.0
  H  H110  1  0.17510000  0.83120000  0.83390000  1.0
  H  H111  1  0.13320000  0.81760000  0.73480000  1.0
  H  H112  1  0.20300000  0.13460000  0.95250000  1.0
  H  H113  1  0.68070000  0.58590000  0.45660000  1.0
  H  H114  1  0.94590000  0.78860000  0.61260000  1.0
  H  H115  1  0.47760000  0.88400000  0.96570000  1.0
  H  H116  1  0.57620000  0.81640000  0.01760000  1.0
  H  H117  1  0.29980000  0.15760000  0.15010000  1.0
  H  H118  1  0.36540000  0.93790000  0.84130000  1.0
  H  H119  1  0.95790000  0.82880000  0.46300000  1.0
  H  H120  1  0.78560000  0.55840000  0.65290000  1.0
  H  H121  1  0.83840000  0.63090000  0.60820000  1.0
  H  H122  1  0.15280000  0.20550000  0.00080000  1.0
  H  H123  1  0.35640000  0.08770000  0.10590000  1.0
  H  H124  1  0.63280000  0.51910000  0.50700000  1.0
  H  H125  1  0.05460000  0.89590000  0.51230000  1.0
  H  H126  1  0.04510000  0.85860000  0.65850000  1.0
  H  H127  1  0.15010000  0.02300000  0.73870000  1.0
  H  H128  1  0.48170000  0.95910000  0.11640000  1.0
  H  H129  1  0.31250000  0.92280000  0.74300000  1.0
  H  H130  1  0.77290000  0.82900000  0.24770000  1.0
  H  H131  1  0.82490000  0.81480000  0.34500000  1.0
  H  H132  1  0.19810000  0.03980000  0.83660000  1.0
  H  H133  1  0.57540000  0.88240000  0.16240000  1.0
  H  H134  1  0.67510000  0.66880000  0.33390000  1.0
  H  H135  1  0.63320000  0.68240000  0.23480000  1.0
  H  H136  1  0.70300000  0.63460000  0.95250000  1.0
  H  H137  1  0.18070000  0.08590000  0.45660000  1.0
  H  H138  1  0.44590000  0.28860000  0.61260000  1.0
  H  H139  1  0.97760000  0.38400000  0.96570000  1.0
  H  H140  1  0.07620000  0.31640000  0.01760000  1.0
  H  H141  1  0.79980000  0.65760000  0.15010000  1.0
  H  H142  1  0.86540000  0.43790000  0.84130000  1.0
  H  H143  1  0.45790000  0.32880000  0.46300000  1.0
  H  H144  1  0.28560000  0.05840000  0.65290000  1.0
  H  H145  1  0.33840000  0.13090000  0.60820000  1.0
  H  H146  1  0.65280000  0.70550000  0.00080000  1.0
  H  H147  1  0.85640000  0.58770000  0.10590000  1.0
  H  H148  1  0.13280000  0.01910000  0.50700000  1.0
  H  H149  1  0.55460000  0.39590000  0.51230000  1.0
  H  H150  1  0.54510000  0.35860000  0.65850000  1.0
  H  H151  1  0.65010000  0.52300000  0.73870000  1.0
  H  H152  1  0.98170000  0.45910000  0.11640000  1.0
  H  H153  1  0.81250000  0.42280000  0.74300000  1.0
  H  H154  1  0.27290000  0.32900000  0.24770000  1.0
  H  H155  1  0.32490000  0.31480000  0.34500000  1.0
  H  H156  1  0.69810000  0.53980000  0.83660000  1.0
  H  H157  1  0.07540000  0.38240000  0.16240000  1.0
  H  H158  1  0.17510000  0.16880000  0.33390000  1.0
  H  H159  1  0.13320000  0.18240000  0.23480000  1.0
  H  H160  1  0.79700000  0.13460000  0.54750000  1.0
  H  H161  1  0.31930000  0.58590000  0.04340000  1.0
  H  H162  1  0.05410000  0.78860000  0.88740000  1.0
  H  H163  1  0.52240000  0.88400000  0.53430000  1.0
  H  H164  1  0.42380000  0.81640000  0.48240000  1.0
  H  H165  1  0.70020000  0.15760000  0.34990000  1.0
  H  H166  1  0.63460000  0.93790000  0.65870000  1.0
  H  H167  1  0.04210000  0.82880000  0.03700000  1.0
  H  H168  1  0.21440000  0.55840000  0.84710000  1.0
  H  H169  1  0.16160000  0.63090000  0.89180000  1.0
  H  H170  1  0.84720000  0.20550000  0.49920000  1.0
  H  H171  1  0.64360000  0.08770000  0.39410000  1.0
  H  H172  1  0.36720000  0.51910000  0.99300000  1.0
  H  H173  1  0.94540000  0.89590000  0.98770000  1.0
  H  H174  1  0.95490000  0.85860000  0.84150000  1.0
  H  H175  1  0.84990000  0.02300000  0.76130000  1.0
  H  H176  1  0.51830000  0.95910000  0.38360000  1.0
  H  H177  1  0.68750000  0.92280000  0.75700000  1.0
  H  H178  1  0.22710000  0.82900000  0.25230000  1.0
  H  H179  1  0.17510000  0.81480000  0.15500000  1.0
  H  H180  1  0.80190000  0.03980000  0.66340000  1.0
  H  H181  1  0.42460000  0.88240000  0.33760000  1.0
  H  H182  1  0.32490000  0.66880000  0.16610000  1.0
  H  H183  1  0.36680000  0.68240000  0.26520000  1.0
  H  H184  1  0.29700000  0.63460000  0.54750000  1.0
  H  H185  1  0.81930000  0.08590000  0.04340000  1.0
  H  H186  1  0.55410000  0.28860000  0.88740000  1.0
  H  H187  1  0.02240000  0.38400000  0.53430000  1.0
  H  H188  1  0.92380000  0.31640000  0.48240000  1.0
  H  H189  1  0.20020000  0.65760000  0.34990000  1.0
  H  H190  1  0.13460000  0.43790000  0.65870000  1.0
  H  H191  1  0.54210000  0.32880000  0.03700000  1.0
  H  H192  1  0.71440000  0.05840000  0.84710000  1.0
  H  H193  1  0.66160000  0.13090000  0.89180000  1.0
  H  H194  1  0.34720000  0.70550000  0.49920000  1.0
  H  H195  1  0.14360000  0.58770000  0.39410000  1.0
  H  H196  1  0.86720000  0.01910000  0.99300000  1.0
  H  H197  1  0.44540000  0.39590000  0.98770000  1.0
  H  H198  1  0.45490000  0.35860000  0.84150000  1.0
  H  H199  1  0.34990000  0.52300000  0.76130000  1.0
  H  H200  1  0.01830000  0.45910000  0.38360000  1.0
  H  H201  1  0.18750000  0.42280000  0.75700000  1.0
  H  H202  1  0.72710000  0.32900000  0.25230000  1.0
  H  H203  1  0.67510000  0.31480000  0.15500000  1.0
  H  H204  1  0.30190000  0.53980000  0.66340000  1.0
  H  H205  1  0.92460000  0.38240000  0.33760000  1.0
  H  H206  1  0.82490000  0.16880000  0.16610000  1.0
  H  H207  1  0.86680000  0.18240000  0.26520000  1.0
  C  C208  1  0.59750000  0.02820000  0.99860000  1.0
  C  C209  1  0.77630000  0.86170000  0.00730000  1.0
  C  C210  1  0.05960000  0.19970000  0.46740000  1.0
  C  C211  1  0.29750000  0.41720000  0.50330000  1.0
  C  C212  1  0.12300000  0.24450000  0.49980000  1.0
  C  C213  1  0.03260000  0.19020000  0.40880000  1.0
  C  C214  1  0.50300000  0.11470000  0.99400000  1.0
  C  C215  1  0.44340000  0.15510000  0.96220000  1.0
  C  C216  1  0.24280000  0.26320000  0.64900000  1.0
  C  C217  1  0.68140000  0.94760000  0.00460000  1.0
  C  C218  1  0.71970000  0.84710000  0.89000000  1.0
  C  C219  1  0.53280000  0.07260000  0.96470000  1.0
  C  C220  1  0.23500000  0.37910000  0.47230000  1.0
  C  C221  1  0.67860000  0.04420000  0.17900000  1.0
  C  C222  1  0.20940000  0.27430000  0.58530000  1.0
  C  C223  1  0.71200000  0.00800000  0.14990000  1.0
  C  C224  1  0.71420000  0.89900000  0.97550000  1.0
  C  C225  1  0.02530000  0.16630000  0.49700000  1.0
  C  C226  1  0.23560000  0.43530000  0.38700000  1.0
  C  C227  1  0.20390000  0.39100000  0.41350000  1.0
  C  C228  1  0.20450000  0.32830000  0.50250000  1.0
  C  C229  1  0.67990000  0.99790000  0.08570000  1.0
  C  C230  1  0.80620000  0.81940000  0.97780000  1.0
  C  C231  1  0.68550000  0.89000000  0.91640000  1.0
  C  C232  1  0.32470000  0.45860000  0.47270000  1.0
  C  C233  1  0.96730000  0.12690000  0.46710000  1.0
  C  C234  1  0.97260000  0.14850000  0.38140000  1.0
  C  C235  1  0.80610000  0.99490000  0.24030000  1.0
  C  C236  1  0.50110000  0.07110000  0.90490000  1.0
  C  C237  1  0.71080000  0.05350000  0.23780000  1.0
  C  C238  1  0.24570000  0.20620000  0.73480000  1.0
  C  C239  1  0.21450000  0.21320000  0.67640000  1.0
  C  C240  1  0.77750000  0.98370000  0.18160000  1.0
  C  C241  1  0.44360000  0.11540000  0.87780000  1.0
  C  C242  1  0.30220000  0.30040000  0.68260000  1.0
  C  C243  1  0.32750000  0.29030000  0.74230000  1.0
  C  C244  1  0.09750000  0.52820000  0.99860000  1.0
  C  C245  1  0.27630000  0.36170000  0.00730000  1.0
  C  C246  1  0.55960000  0.69970000  0.46740000  1.0
  C  C247  1  0.79750000  0.91720000  0.50330000  1.0
  C  C248  1  0.62300000  0.74450000  0.49980000  1.0
  C  C249  1  0.53260000  0.69020000  0.40880000  1.0
  C  C250  1  0.00300000  0.61470000  0.99400000  1.0
  C  C251  1  0.94340000  0.65510000  0.96220000  1.0
  C  C252  1  0.74280000  0.76320000  0.64900000  1.0
  C  C253  1  0.18140000  0.44760000  0.00460000  1.0
  C  C254  1  0.21970000  0.34710000  0.89000000  1.0
  C  C255  1  0.03280000  0.57260000  0.96470000  1.0
  C  C256  1  0.73500000  0.87910000  0.47230000  1.0
  C  C257  1  0.17860000  0.54420000  0.17900000  1.0
  C  C258  1  0.70940000  0.77430000  0.58530000  1.0
  C  C259  1  0.21200000  0.50800000  0.14990000  1.0
  C  C260  1  0.21420000  0.39900000  0.97550000  1.0
  C  C261  1  0.52530000  0.66630000  0.49700000  1.0
  C  C262  1  0.73560000  0.93530000  0.38700000  1.0
  C  C263  1  0.70390000  0.89100000  0.41350000  1.0
  C  C264  1  0.70450000  0.82830000  0.50250000  1.0
  C  C265  1  0.17990000  0.49790000  0.08570000  1.0
  C  C266  1  0.30620000  0.31940000  0.97780000  1.0
  C  C267  1  0.18550000  0.39000000  0.91640000  1.0
  C  C268  1  0.82470000  0.95860000  0.47270000  1.0
  C  C269  1  0.46730000  0.62690000  0.46710000  1.0
  C  C270  1  0.47260000  0.64850000  0.38140000  1.0
  C  C271  1  0.30610000  0.49490000  0.24030000  1.0
  C  C272  1  0.00110000  0.57110000  0.90490000  1.0
  C  C273  1  0.21080000  0.55350000  0.23780000  1.0
  C  C274  1  0.74570000  0.70620000  0.73480000  1.0
  C  C275  1  0.71450000  0.71320000  0.67640000  1.0
  C  C276  1  0.27750000  0.48370000  0.18160000  1.0
  C  C277  1  0.94360000  0.61540000  0.87780000  1.0
  C  C278  1  0.80220000  0.80040000  0.68260000  1.0
  C  C279  1  0.82750000  0.79030000  0.74230000  1.0
  C  C280  1  0.40250000  0.02820000  0.50140000  1.0
  C  C281  1  0.22370000  0.86170000  0.49270000  1.0
  C  C282  1  0.94040000  0.19970000  0.03260000  1.0
  C  C283  1  0.70250000  0.41720000  0.99670000  1.0
  C  C284  1  0.87700000  0.24450000  0.00020000  1.0
  C  C285  1  0.96740000  0.19020000  0.09120000  1.0
  C  C286  1  0.49700000  0.11470000  0.50600000  1.0
  C  C287  1  0.55660000  0.15510000  0.53780000  1.0
  C  C288  1  0.75720000  0.26320000  0.85100000  1.0
  C  C289  1  0.31860000  0.94760000  0.49540000  1.0
  C  C290  1  0.28030000  0.84710000  0.61000000  1.0
  C  C291  1  0.46720000  0.07260000  0.53530000  1.0
  C  C292  1  0.76500000  0.37910000  0.02770000  1.0
  C  C293  1  0.32140000  0.04420000  0.32100000  1.0
  C  C294  1  0.79060000  0.27430000  0.91470000  1.0
  C  C295  1  0.28800000  0.00800000  0.35010000  1.0
  C  C296  1  0.28580000  0.89900000  0.52450000  1.0
  C  C297  1  0.97470000  0.16630000  0.00300000  1.0
  C  C298  1  0.76440000  0.43530000  0.11300000  1.0
  C  C299  1  0.79610000  0.39100000  0.08650000  1.0
  C  C300  1  0.79550000  0.32830000  0.99750000  1.0
  C  C301  1  0.32010000  0.99790000  0.41430000  1.0
  C  C302  1  0.19380000  0.81940000  0.52220000  1.0
  C  C303  1  0.31450000  0.89000000  0.58360000  1.0
  C  C304  1  0.67530000  0.45860000  0.02730000  1.0
  C  C305  1  0.03270000  0.12690000  0.03290000  1.0
  C  C306  1  0.02740000  0.14850000  0.11860000  1.0
  C  C307  1  0.19390000  0.99490000  0.25970000  1.0
  C  C308  1  0.49890000  0.07110000  0.59510000  1.0
  C  C309  1  0.28920000  0.05350000  0.26220000  1.0
  C  C310  1  0.75430000  0.20620000  0.76520000  1.0
  C  C311  1  0.78550000  0.21320000  0.82360000  1.0
  C  C312  1  0.22250000  0.98370000  0.31840000  1.0
  C  C313  1  0.55640000  0.11540000  0.62220000  1.0
  C  C314  1  0.69780000  0.30040000  0.81740000  1.0
  C  C315  1  0.67250000  0.29030000  0.75770000  1.0
  C  C316  1  0.90250000  0.52820000  0.50140000  1.0
  C  C317  1  0.72370000  0.36170000  0.49270000  1.0
  C  C318  1  0.44040000  0.69970000  0.03260000  1.0
  C  C319  1  0.20250000  0.91720000  0.99670000  1.0
  C  C320  1  0.37700000  0.74450000  0.00020000  1.0
  C  C321  1  0.46740000  0.69020000  0.09120000  1.0
  C  C322  1  0.99700000  0.61470000  0.50600000  1.0
  C  C323  1  0.05660000  0.65510000  0.53780000  1.0
  C  C324  1  0.25720000  0.76320000  0.85100000  1.0
  C  C325  1  0.81860000  0.44760000  0.49540000  1.0
  C  C326  1  0.78030000  0.34710000  0.61000000  1.0
  C  C327  1  0.96720000  0.57260000  0.53530000  1.0
  C  C328  1  0.26500000  0.87910000  0.02770000  1.0
  C  C329  1  0.82140000  0.54420000  0.32100000  1.0
  C  C330  1  0.29060000  0.77430000  0.91470000  1.0
  C  C331  1  0.78800000  0.50800000  0.35010000  1.0
  C  C332  1  0.78580000  0.39900000  0.52450000  1.0
  C  C333  1  0.47470000  0.66630000  0.00300000  1.0
  C  C334  1  0.26440000  0.93530000  0.11300000  1.0
  C  C335  1  0.29610000  0.89100000  0.08650000  1.0
  C  C336  1  0.29550000  0.82830000  0.99750000  1.0
  C  C337  1  0.82010000  0.49790000  0.41430000  1.0
  C  C338  1  0.69380000  0.31940000  0.52220000  1.0
  C  C339  1  0.81450000  0.39000000  0.58360000  1.0
  C  C340  1  0.17530000  0.95860000  0.02730000  1.0
  C  C341  1  0.53270000  0.62690000  0.03290000  1.0
  C  C342  1  0.52740000  0.64850000  0.11860000  1.0
  C  C343  1  0.69390000  0.49490000  0.25970000  1.0
  C  C344  1  0.99890000  0.57110000  0.59510000  1.0
  C  C345  1  0.78920000  0.55350000  0.26220000  1.0
  C  C346  1  0.25430000  0.70620000  0.76520000  1.0
  C  C347  1  0.28550000  0.71320000  0.82360000  1.0
  C  C348  1  0.72250000  0.48370000  0.31840000  1.0
  C  C349  1  0.05640000  0.61540000  0.62220000  1.0
  C  C350  1  0.19780000  0.80040000  0.81740000  1.0
  C  C351  1  0.17250000  0.79030000  0.75770000  1.0
  C  C352  1  0.40250000  0.97180000  0.00140000  1.0
  C  C353  1  0.22370000  0.13830000  0.99270000  1.0
  C  C354  1  0.94040000  0.80030000  0.53260000  1.0
  C  C355  1  0.70250000  0.58280000  0.49670000  1.0
  C  C356  1  0.87700000  0.75550000  0.50020000  1.0
  C  C357  1  0.96740000  0.80980000  0.59120000  1.0
  C  C358  1  0.49700000  0.88530000  0.00600000  1.0
  C  C359  1  0.55660000  0.84490000  0.03780000  1.0
  C  C360  1  0.75720000  0.73680000  0.35100000  1.0
  C  C361  1  0.31860000  0.05240000  0.99540000  1.0
  C  C362  1  0.28030000  0.15290000  0.11000000  1.0
  C  C363  1  0.46720000  0.92740000  0.03530000  1.0
  C  C364  1  0.76500000  0.62090000  0.52770000  1.0
  C  C365  1  0.32140000  0.95580000  0.82100000  1.0
  C  C366  1  0.79060000  0.72570000  0.41470000  1.0
  C  C367  1  0.28800000  0.99200000  0.85010000  1.0
  C  C368  1  0.28580000  0.10100000  0.02450000  1.0
  C  C369  1  0.97470000  0.83370000  0.50300000  1.0
  C  C370  1  0.76440000  0.56470000  0.61300000  1.0
  C  C371  1  0.79610000  0.60900000  0.58650000  1.0
  C  C372  1  0.79550000  0.67170000  0.49750000  1.0
  C  C373  1  0.32010000  0.00210000  0.91430000  1.0
  C  C374  1  0.19380000  0.18060000  0.02220000  1.0
  C  C375  1  0.31450000  0.11000000  0.08360000  1.0
  C  C376  1  0.67530000  0.54140000  0.52730000  1.0
  C  C377  1  0.03270000  0.87310000  0.53290000  1.0
  C  C378  1  0.02740000  0.85150000  0.61860000  1.0
  C  C379  1  0.19390000  0.00510000  0.75970000  1.0
  C  C380  1  0.49890000  0.92890000  0.09510000  1.0
  C  C381  1  0.28920000  0.94650000  0.76220000  1.0
  C  C382  1  0.75430000  0.79380000  0.26520000  1.0
  C  C383  1  0.78550000  0.78680000  0.32360000  1.0
  C  C384  1  0.22250000  0.01630000  0.81840000  1.0
  C  C385  1  0.55640000  0.88460000  0.12220000  1.0
  C  C386  1  0.69780000  0.69960000  0.31740000  1.0
  C  C387  1  0.67250000  0.70970000  0.25770000  1.0
  C  C388  1  0.90250000  0.47180000  0.00140000  1.0
  C  C389  1  0.72370000  0.63830000  0.99270000  1.0
  C  C390  1  0.44040000  0.30030000  0.53260000  1.0
  C  C391  1  0.20250000  0.08280000  0.49670000  1.0
  C  C392  1  0.37700000  0.25550000  0.50020000  1.0
  C  C393  1  0.46740000  0.30980000  0.59120000  1.0
  C  C394  1  0.99700000  0.38530000  0.00600000  1.0
  C  C395  1  0.05660000  0.34490000  0.03780000  1.0
  C  C396  1  0.25720000  0.23680000  0.35100000  1.0
  C  C397  1  0.81860000  0.55240000  0.99540000  1.0
  C  C398  1  0.78030000  0.65290000  0.11000000  1.0
  C  C399  1  0.96720000  0.42740000  0.03530000  1.0
  C  C400  1  0.26500000  0.12090000  0.52770000  1.0
  C  C401  1  0.82140000  0.45580000  0.82100000  1.0
  C  C402  1  0.29060000  0.22570000  0.41470000  1.0
  C  C403  1  0.78800000  0.49200000  0.85010000  1.0
  C  C404  1  0.78580000  0.60100000  0.02450000  1.0
  C  C405  1  0.47470000  0.33370000  0.50300000  1.0
  C  C406  1  0.26440000  0.06470000  0.61300000  1.0
  C  C407  1  0.29610000  0.10900000  0.58650000  1.0
  C  C408  1  0.29550000  0.17170000  0.49750000  1.0
  C  C409  1  0.82010000  0.50210000  0.91430000  1.0
  C  C410  1  0.69380000  0.68060000  0.02220000  1.0
  C  C411  1  0.81450000  0.61000000  0.08360000  1.0
  C  C412  1  0.17530000  0.04140000  0.52730000  1.0
  C  C413  1  0.53270000  0.37310000  0.53290000  1.0
  C  C414  1  0.52740000  0.35150000  0.61860000  1.0
  C  C415  1  0.69390000  0.50510000  0.75970000  1.0
  C  C416  1  0.99890000  0.42890000  0.09510000  1.0
  C  C417  1  0.78920000  0.44650000  0.76220000  1.0
  C  C418  1  0.25430000  0.29380000  0.26520000  1.0
  C  C419  1  0.28550000  0.28680000  0.32360000  1.0
  C  C420  1  0.72250000  0.51630000  0.81840000  1.0
  C  C421  1  0.05640000  0.38460000  0.12220000  1.0
  C  C422  1  0.19780000  0.19960000  0.31740000  1.0
  C  C423  1  0.17250000  0.20970000  0.25770000  1.0
  C  C424  1  0.59750000  0.97180000  0.49860000  1.0
  C  C425  1  0.77630000  0.13830000  0.50730000  1.0
  C  C426  1  0.05960000  0.80030000  0.96740000  1.0
  C  C427  1  0.29750000  0.58280000  0.00330000  1.0
  C  C428  1  0.12300000  0.75550000  0.99980000  1.0
  C  C429  1  0.03260000  0.80980000  0.90880000  1.0
  C  C430  1  0.50300000  0.88530000  0.49400000  1.0
  C  C431  1  0.44340000  0.84490000  0.46220000  1.0
  C  C432  1  0.24280000  0.73680000  0.14900000  1.0
  C  C433  1  0.68140000  0.05240000  0.50460000  1.0
  C  C434  1  0.71970000  0.15290000  0.39000000  1.0
  C  C435  1  0.53280000  0.92740000  0.46470000  1.0
  C  C436  1  0.23500000  0.62090000  0.97230000  1.0
  C  C437  1  0.67860000  0.95580000  0.67900000  1.0
  C  C438  1  0.20940000  0.72570000  0.08530000  1.0
  C  C439  1  0.71200000  0.99200000  0.64990000  1.0
  C  C440  1  0.71420000  0.10100000  0.47550000  1.0
  C  C441  1  0.02530000  0.83370000  0.99700000  1.0
  C  C442  1  0.23560000  0.56470000  0.88700000  1.0
  C  C443  1  0.20390000  0.60900000  0.91350000  1.0
  C  C444  1  0.20450000  0.67170000  0.00250000  1.0
  C  C445  1  0.67990000  0.00210000  0.58570000  1.0
  C  C446  1  0.80620000  0.18060000  0.47780000  1.0
  C  C447  1  0.68550000  0.11000000  0.41640000  1.0
  C  C448  1  0.32470000  0.54140000  0.97270000  1.0
  C  C449  1  0.96730000  0.87310000  0.96710000  1.0
  C  C450  1  0.97260000  0.85150000  0.88140000  1.0
  C  C451  1  0.80610000  0.00510000  0.74030000  1.0
  C  C452  1  0.50110000  0.92890000  0.40490000  1.0
  C  C453  1  0.71080000  0.94650000  0.73780000  1.0
  C  C454  1  0.24570000  0.79380000  0.23480000  1.0
  C  C455  1  0.21450000  0.78680000  0.17640000  1.0
  C  C456  1  0.77750000  0.01630000  0.68160000  1.0
  C  C457  1  0.44360000  0.88460000  0.37780000  1.0
  C  C458  1  0.30220000  0.69960000  0.18260000  1.0
  C  C459  1  0.32750000  0.70970000  0.24230000  1.0
  C  C460  1  0.09750000  0.47180000  0.49860000  1.0
  C  C461  1  0.27630000  0.63830000  0.50730000  1.0
  C  C462  1  0.55960000  0.30030000  0.96740000  1.0
  C  C463  1  0.79750000  0.08280000  0.00330000  1.0
  C  C464  1  0.62300000  0.25550000  0.99980000  1.0
  C  C465  1  0.53260000  0.30980000  0.90880000  1.0
  C  C466  1  0.00300000  0.38530000  0.49400000  1.0
  C  C467  1  0.94340000  0.34490000  0.46220000  1.0
  C  C468  1  0.74280000  0.23680000  0.14900000  1.0
  C  C469  1  0.18140000  0.55240000  0.50460000  1.0
  C  C470  1  0.21970000  0.65290000  0.39000000  1.0
  C  C471  1  0.03280000  0.42740000  0.46470000  1.0
  C  C472  1  0.73500000  0.12090000  0.97230000  1.0
  C  C473  1  0.17860000  0.45580000  0.67900000  1.0
  C  C474  1  0.70940000  0.22570000  0.08530000  1.0
  C  C475  1  0.21200000  0.49200000  0.64990000  1.0
  C  C476  1  0.21420000  0.60100000  0.47550000  1.0
  C  C477  1  0.52530000  0.33370000  0.99700000  1.0
  C  C478  1  0.73560000  0.06470000  0.88700000  1.0
  C  C479  1  0.70390000  0.10900000  0.91350000  1.0
  C  C480  1  0.70450000  0.17170000  0.00250000  1.0
  C  C481  1  0.17990000  0.50210000  0.58570000  1.0
  C  C482  1  0.30620000  0.68060000  0.47780000  1.0
  C  C483  1  0.18550000  0.61000000  0.41640000  1.0
  C  C484  1  0.82470000  0.04140000  0.97270000  1.0
  C  C485  1  0.46730000  0.37310000  0.96710000  1.0
  C  C486  1  0.47260000  0.35150000  0.88140000  1.0
  C  C487  1  0.30610000  0.50510000  0.74030000  1.0
  C  C488  1  0.00110000  0.42890000  0.40490000  1.0
  C  C489  1  0.21080000  0.44650000  0.73780000  1.0
  C  C490  1  0.74570000  0.29380000  0.23480000  1.0
  C  C491  1  0.71450000  0.28680000  0.17640000  1.0
  C  C492  1  0.27750000  0.51630000  0.68160000  1.0
  C  C493  1  0.94360000  0.38460000  0.37780000  1.0
  C  C494  1  0.80220000  0.19960000  0.18260000  1.0
  C  C495  1  0.82750000  0.20970000  0.24230000  1.0
  N  N496  1  0.93950000  0.11850000  0.41020000  1.0
  N  N497  1  0.29520000  0.46950000  0.41600000  1.0
  N  N498  1  0.30010000  0.24530000  0.76870000  1.0
  N  N499  1  0.15200000  0.23450000  0.55690000  1.0
  N  N500  1  0.14750000  0.29040000  0.47040000  1.0
  N  N501  1  0.23730000  0.32290000  0.56050000  1.0
  N  N502  1  0.41280000  0.15570000  0.90510000  1.0
  N  N503  1  0.77950000  0.81250000  0.92050000  1.0
  N  N504  1  0.77530000  0.02970000  0.26930000  1.0
  N  N505  1  0.62250000  0.03720000  0.05630000  1.0
  N  N506  1  0.62480000  0.98690000  0.97070000  1.0
  N  N507  1  0.71030000  0.95080000  0.06240000  1.0
  N  N508  1  0.43950000  0.61850000  0.41020000  1.0
  N  N509  1  0.79520000  0.96950000  0.41600000  1.0
  N  N510  1  0.80010000  0.74530000  0.76870000  1.0
  N  N511  1  0.65200000  0.73450000  0.55690000  1.0
  N  N512  1  0.64750000  0.79040000  0.47040000  1.0
  N  N513  1  0.73730000  0.82290000  0.56050000  1.0
  N  N514  1  0.91280000  0.65570000  0.90510000  1.0
  N  N515  1  0.27950000  0.31250000  0.92050000  1.0
  N  N516  1  0.27530000  0.52970000  0.26930000  1.0
  N  N517  1  0.12250000  0.53720000  0.05630000  1.0
  N  N518  1  0.12480000  0.48690000  0.97070000  1.0
  N  N519  1  0.21030000  0.45080000  0.06240000  1.0
  N  N520  1  0.06050000  0.11850000  0.08980000  1.0
  N  N521  1  0.70480000  0.46950000  0.08400000  1.0
  N  N522  1  0.69990000  0.24530000  0.73130000  1.0
  N  N523  1  0.84800000  0.23450000  0.94310000  1.0
  N  N524  1  0.85250000  0.29040000  0.02960000  1.0
  N  N525  1  0.76270000  0.32290000  0.93950000  1.0
  N  N526  1  0.58720000  0.15570000  0.59490000  1.0
  N  N527  1  0.22050000  0.81250000  0.57950000  1.0
  N  N528  1  0.22470000  0.02970000  0.23070000  1.0
  N  N529  1  0.37750000  0.03720000  0.44370000  1.0
  N  N530  1  0.37520000  0.98690000  0.52930000  1.0
  N  N531  1  0.28970000  0.95080000  0.43760000  1.0
  N  N532  1  0.56050000  0.61850000  0.08980000  1.0
  N  N533  1  0.20480000  0.96950000  0.08400000  1.0
  N  N534  1  0.19990000  0.74530000  0.73130000  1.0
  N  N535  1  0.34800000  0.73450000  0.94310000  1.0
  N  N536  1  0.35250000  0.79040000  0.02960000  1.0
  N  N537  1  0.26270000  0.82290000  0.93950000  1.0
  N  N538  1  0.08720000  0.65570000  0.59490000  1.0
  N  N539  1  0.72050000  0.31250000  0.57950000  1.0
  N  N540  1  0.72470000  0.52970000  0.23070000  1.0
  N  N541  1  0.87750000  0.53720000  0.44370000  1.0
  N  N542  1  0.87520000  0.48690000  0.52930000  1.0
  N  N543  1  0.78970000  0.45080000  0.43760000  1.0
  N  N544  1  0.06050000  0.88150000  0.58980000  1.0
  N  N545  1  0.70480000  0.53050000  0.58400000  1.0
  N  N546  1  0.69990000  0.75470000  0.23130000  1.0
  N  N547  1  0.84800000  0.76550000  0.44310000  1.0
  N  N548  1  0.85250000  0.70960000  0.52960000  1.0
  N  N549  1  0.76270000  0.67710000  0.43950000  1.0
  N  N550  1  0.58720000  0.84430000  0.09490000  1.0
  N  N551  1  0.22050000  0.18750000  0.07950000  1.0
  N  N552  1  0.22470000  0.97030000  0.73070000  1.0
  N  N553  1  0.37750000  0.96280000  0.94370000  1.0
  N  N554  1  0.37520000  0.01310000  0.02930000  1.0
  N  N555  1  0.28970000  0.04920000  0.93760000  1.0
  N  N556  1  0.56050000  0.38150000  0.58980000  1.0
  N  N557  1  0.20480000  0.03050000  0.58400000  1.0
  N  N558  1  0.19990000  0.25470000  0.23130000  1.0
  N  N559  1  0.34800000  0.26550000  0.44310000  1.0
  N  N560  1  0.35250000  0.20960000  0.52960000  1.0
  N  N561  1  0.26270000  0.17710000  0.43950000  1.0
  N  N562  1  0.08720000  0.34430000  0.09490000  1.0
  N  N563  1  0.72050000  0.68750000  0.07950000  1.0
  N  N564  1  0.72470000  0.47030000  0.73070000  1.0
  N  N565  1  0.87750000  0.46280000  0.94370000  1.0
  N  N566  1  0.87520000  0.51310000  0.02930000  1.0
  N  N567  1  0.78970000  0.54920000  0.93760000  1.0
  N  N568  1  0.93950000  0.88150000  0.91020000  1.0
  N  N569  1  0.29520000  0.53050000  0.91600000  1.0
  N  N570  1  0.30010000  0.75470000  0.26870000  1.0
  N  N571  1  0.15200000  0.76550000  0.05690000  1.0
  N  N572  1  0.14750000  0.70960000  0.97040000  1.0
  N  N573  1  0.23730000  0.67710000  0.06050000  1.0
  N  N574  1  0.41280000  0.84430000  0.40510000  1.0
  N  N575  1  0.77950000  0.18750000  0.42050000  1.0
  N  N576  1  0.77530000  0.97030000  0.76930000  1.0
  N  N577  1  0.62250000  0.96280000  0.55630000  1.0
  N  N578  1  0.62480000  0.01310000  0.47070000  1.0
  N  N579  1  0.71030000  0.04920000  0.56240000  1.0
  N  N580  1  0.43950000  0.38150000  0.91020000  1.0
  N  N581  1  0.79520000  0.03050000  0.91600000  1.0
  N  N582  1  0.80010000  0.25470000  0.26870000  1.0
  N  N583  1  0.65200000  0.26550000  0.05690000  1.0
  N  N584  1  0.64750000  0.20960000  0.97040000  1.0
  N  N585  1  0.73730000  0.17710000  0.06050000  1.0
  N  N586  1  0.91280000  0.34430000  0.40510000  1.0
  N  N587  1  0.27950000  0.68750000  0.42050000  1.0
  N  N588  1  0.27530000  0.47030000  0.76930000  1.0
  N  N589  1  0.12250000  0.46280000  0.55630000  1.0
  N  N590  1  0.12480000  0.51310000  0.47070000  1.0
  N  N591  1  0.21030000  0.54920000  0.56240000  1.0
