# generated using pymatgen
data_Zn2H12C21(NO2)3
_symmetry_space_group_name_H-M   'P 1'
_cell_length_a   7.51060000
_cell_length_b   31.19590000
_cell_length_c   10.55370000
_cell_angle_alpha   90.00000000
_cell_angle_beta   118.65800000
_cell_angle_gamma   90.00000000
_symmetry_Int_Tables_number   1
_chemical_formula_structural   Zn2H12C21(NO2)3
_chemical_formula_sum   'Zn8 H48 C84 N12 O24'
_cell_volume   2169.81650216
_cell_formula_units_Z   4
loop_
 _symmetry_equiv_pos_site_id
 _symmetry_equiv_pos_as_xyz
  1  'x, y, z'
loop_
 _atom_site_type_symbol
 _atom_site_label
 _atom_site_symmetry_multiplicity
 _atom_site_fract_x
 _atom_site_fract_y
 _atom_site_fract_z
 _atom_site_occupancy
  Zn  Zn0  1  0.78098000  0.97494000  0.65010000  1.0
  Zn  Zn1  1  0.19596000  0.73785000  0.40921000  1.0
  Zn  Zn2  1  0.21902000  0.47494000  0.84990000  1.0
  Zn  Zn3  1  0.80404000  0.23785000  0.09079000  1.0
  Zn  Zn4  1  0.21902000  0.02506000  0.34990000  1.0
  Zn  Zn5  1  0.80404000  0.26215000  0.59079000  1.0
  Zn  Zn6  1  0.78098000  0.52506000  0.15010000  1.0
  Zn  Zn7  1  0.19596000  0.76215000  0.90921000  1.0
  H  H8  1  0.73120000  0.04300000  0.41120000  1.0
  H  H9  1  0.22700000  0.00590000  0.89980000  1.0
  H  H10  1  0.47680000  0.05410000  0.04030000  1.0
  H  H11  1  0.49080000  0.12150000  0.95060000  1.0
  H  H12  1  0.26330000  0.14080000  0.71800000  1.0
  H  H13  1  0.20520000  0.96200000  0.09550000  1.0
  H  H14  1  0.93590000  0.84560000  0.01700000  1.0
  H  H15  1  0.41130000  0.87180000  0.41080000  1.0
  H  H16  1  0.14340000  0.19510000  0.33230000  1.0
  H  H17  1  0.21420000  0.13890000  0.48970000  1.0
  H  H18  1  0.60730000  0.11920000  0.32280000  1.0
  H  H19  1  0.55450000  0.17490000  0.16320000  1.0
  H  H20  1  0.26880000  0.54300000  0.08880000  1.0
  H  H21  1  0.77300000  0.50590000  0.60020000  1.0
  H  H22  1  0.52320000  0.55410000  0.45970000  1.0
  H  H23  1  0.50920000  0.62150000  0.54940000  1.0
  H  H24  1  0.73670000  0.64080000  0.78200000  1.0
  H  H25  1  0.79480000  0.46200000  0.40450000  1.0
  H  H26  1  0.06410000  0.34560000  0.48300000  1.0
  H  H27  1  0.58870000  0.37180000  0.08920000  1.0
  H  H28  1  0.85660000  0.69510000  0.16770000  1.0
  H  H29  1  0.78580000  0.63890000  0.01030000  1.0
  H  H30  1  0.39270000  0.61920000  0.17720000  1.0
  H  H31  1  0.44550000  0.67490000  0.33680000  1.0
  H  H32  1  0.26880000  0.95700000  0.58880000  1.0
  H  H33  1  0.77300000  0.99410000  0.10020000  1.0
  H  H34  1  0.52320000  0.94590000  0.95970000  1.0
  H  H35  1  0.50920000  0.87850000  0.04940000  1.0
  H  H36  1  0.73670000  0.85920000  0.28200000  1.0
  H  H37  1  0.79480000  0.03800000  0.90450000  1.0
  H  H38  1  0.06410000  0.15440000  0.98300000  1.0
  H  H39  1  0.58870000  0.12820000  0.58920000  1.0
  H  H40  1  0.85660000  0.80490000  0.66770000  1.0
  H  H41  1  0.78580000  0.86110000  0.51030000  1.0
  H  H42  1  0.39270000  0.88080000  0.67720000  1.0
  H  H43  1  0.44550000  0.82510000  0.83680000  1.0
  H  H44  1  0.73120000  0.45700000  0.91120000  1.0
  H  H45  1  0.22700000  0.49410000  0.39980000  1.0
  H  H46  1  0.47680000  0.44590000  0.54030000  1.0
  H  H47  1  0.49080000  0.37850000  0.45060000  1.0
  H  H48  1  0.26330000  0.35920000  0.21800000  1.0
  H  H49  1  0.20520000  0.53800000  0.59550000  1.0
  H  H50  1  0.93590000  0.65440000  0.51700000  1.0
  H  H51  1  0.41130000  0.62820000  0.91080000  1.0
  H  H52  1  0.14340000  0.30490000  0.83230000  1.0
  H  H53  1  0.21420000  0.36110000  0.98970000  1.0
  H  H54  1  0.60730000  0.38080000  0.82280000  1.0
  H  H55  1  0.55450000  0.32510000  0.66320000  1.0
  C  C56  1  0.95360000  0.08703000  0.52480000  1.0
  C  C57  1  0.84840000  0.04976000  0.49970000  1.0
  C  C58  1  0.09320000  0.04461000  0.71930000  1.0
  C  C59  1  0.23420000  0.03310000  0.86220000  1.0
  C  C60  1  0.37970000  0.06157000  0.94440000  1.0
  C  C61  1  0.38900000  0.10178000  0.89010000  1.0
  C  C62  1  0.25650000  0.11323000  0.75360000  1.0
  C  C63  1  0.32740000  0.92205000  0.26950000  1.0
  C  C64  1  0.19580000  0.93404000  0.12750000  1.0
  C  C65  1  0.05060000  0.90556000  0.03200000  1.0
  C  C66  1  0.03670000  0.86496000  0.08060000  1.0
  C  C67  1  0.16960000  0.85237000  0.22230000  1.0
  C  C68  1  0.31740000  0.88064000  0.31570000  1.0
  C  C69  1  0.47880000  0.95327000  0.37100000  1.0
  C  C70  1  0.15380000  0.80854000  0.27490000  1.0
  C  C71  1  0.03410000  0.17914000  0.32980000  1.0
  C  C72  1  0.07720000  0.14618000  0.42510000  1.0
  C  C73  1  0.91910000  0.12316000  0.42720000  1.0
  C  C74  1  0.71940000  0.13426000  0.32610000  1.0
  C  C75  1  0.68980000  0.16755000  0.23170000  1.0
  C  C76  1  0.90610000  0.91875000  0.87970000  1.0
  C  C77  1  0.04640000  0.58703000  0.97520000  1.0
  C  C78  1  0.15160000  0.54976000  0.00030000  1.0
  C  C79  1  0.90680000  0.54461000  0.78070000  1.0
  C  C80  1  0.76580000  0.53310000  0.63780000  1.0
  C  C81  1  0.62030000  0.56157000  0.55560000  1.0
  C  C82  1  0.61100000  0.60178000  0.60990000  1.0
  C  C83  1  0.74350000  0.61323000  0.74640000  1.0
  C  C84  1  0.67260000  0.42205000  0.23050000  1.0
  C  C85  1  0.80420000  0.43404000  0.37250000  1.0
  C  C86  1  0.94940000  0.40556000  0.46800000  1.0
  C  C87  1  0.96330000  0.36496000  0.41940000  1.0
  C  C88  1  0.83040000  0.35237000  0.27770000  1.0
  C  C89  1  0.68260000  0.38064000  0.18430000  1.0
  C  C90  1  0.52120000  0.45327000  0.12900000  1.0
  C  C91  1  0.84620000  0.30854000  0.22510000  1.0
  C  C92  1  0.96590000  0.67914000  0.17020000  1.0
  C  C93  1  0.92280000  0.64618000  0.07490000  1.0
  C  C94  1  0.08090000  0.62316000  0.07280000  1.0
  C  C95  1  0.28060000  0.63426000  0.17390000  1.0
  C  C96  1  0.31020000  0.66755000  0.26830000  1.0
  C  C97  1  0.09390000  0.41875000  0.62030000  1.0
  C  C98  1  0.04640000  0.91297000  0.47520000  1.0
  C  C99  1  0.15160000  0.95024000  0.50030000  1.0
  C  C100  1  0.90680000  0.95539000  0.28070000  1.0
  C  C101  1  0.76580000  0.96690000  0.13780000  1.0
  C  C102  1  0.62030000  0.93843000  0.05560000  1.0
  C  C103  1  0.61100000  0.89822000  0.10990000  1.0
  C  C104  1  0.74350000  0.88677000  0.24640000  1.0
  C  C105  1  0.67260000  0.07795000  0.73050000  1.0
  C  C106  1  0.80420000  0.06596000  0.87250000  1.0
  C  C107  1  0.94940000  0.09444000  0.96800000  1.0
  C  C108  1  0.96330000  0.13504000  0.91940000  1.0
  C  C109  1  0.83040000  0.14763000  0.77770000  1.0
  C  C110  1  0.68260000  0.11936000  0.68430000  1.0
  C  C111  1  0.52120000  0.04673000  0.62900000  1.0
  C  C112  1  0.84620000  0.19146000  0.72510000  1.0
  C  C113  1  0.96590000  0.82086000  0.67020000  1.0
  C  C114  1  0.92280000  0.85382000  0.57490000  1.0
  C  C115  1  0.08090000  0.87684000  0.57280000  1.0
  C  C116  1  0.28060000  0.86574000  0.67390000  1.0
  C  C117  1  0.31020000  0.83245000  0.76830000  1.0
  C  C118  1  0.09390000  0.08125000  0.12030000  1.0
  C  C119  1  0.95360000  0.41297000  0.02480000  1.0
  C  C120  1  0.84840000  0.45024000  0.99970000  1.0
  C  C121  1  0.09320000  0.45539000  0.21930000  1.0
  C  C122  1  0.23420000  0.46690000  0.36220000  1.0
  C  C123  1  0.37970000  0.43843000  0.44440000  1.0
  C  C124  1  0.38900000  0.39822000  0.39010000  1.0
  C  C125  1  0.25650000  0.38677000  0.25360000  1.0
  C  C126  1  0.32740000  0.57795000  0.76950000  1.0
  C  C127  1  0.19580000  0.56596000  0.62750000  1.0
  C  C128  1  0.05060000  0.59444000  0.53200000  1.0
  C  C129  1  0.03670000  0.63504000  0.58060000  1.0
  C  C130  1  0.16960000  0.64763000  0.72230000  1.0
  C  C131  1  0.31740000  0.61936000  0.81570000  1.0
  C  C132  1  0.47880000  0.54673000  0.87100000  1.0
  C  C133  1  0.15380000  0.69146000  0.77490000  1.0
  C  C134  1  0.03410000  0.32086000  0.82980000  1.0
  C  C135  1  0.07720000  0.35382000  0.92510000  1.0
  C  C136  1  0.91910000  0.37684000  0.92720000  1.0
  C  C137  1  0.71940000  0.36574000  0.82610000  1.0
  C  C138  1  0.68980000  0.33245000  0.73170000  1.0
  C  C139  1  0.90610000  0.58125000  0.37970000  1.0
  N  N140  1  0.93050000  0.02327000  0.61590000  1.0
  N  N141  1  0.11030000  0.08398000  0.66620000  1.0
  N  N142  1  0.84180000  0.19006000  0.23160000  1.0
  N  N143  1  0.06950000  0.52327000  0.88410000  1.0
  N  N144  1  0.88970000  0.58398000  0.83380000  1.0
  N  N145  1  0.15820000  0.69006000  0.26840000  1.0
  N  N146  1  0.06950000  0.97673000  0.38410000  1.0
  N  N147  1  0.88970000  0.91602000  0.33380000  1.0
  N  N148  1  0.15820000  0.80994000  0.76840000  1.0
  N  N149  1  0.93050000  0.47673000  0.11590000  1.0
  N  N150  1  0.11030000  0.41602000  0.16620000  1.0
  N  N151  1  0.84180000  0.30994000  0.73160000  1.0
  O  O152  1  0.62930000  0.93786000  0.48190000  1.0
  O  O153  1  0.44910000  0.99294000  0.34470000  1.0
  O  O154  1  0.96440000  0.95180000  0.83640000  1.0
  O  O155  1  0.74890000  0.89870000  0.80660000  1.0
  O  O156  1  0.28300000  0.79757000  0.40240000  1.0
  O  O157  1  0.01390000  0.78353000  0.19430000  1.0
  O  O158  1  0.37070000  0.43786000  0.01810000  1.0
  O  O159  1  0.55090000  0.49294000  0.15530000  1.0
  O  O160  1  0.03560000  0.45180000  0.66360000  1.0
  O  O161  1  0.25110000  0.39870000  0.69340000  1.0
  O  O162  1  0.71700000  0.29757000  0.09760000  1.0
  O  O163  1  0.98610000  0.28353000  0.30570000  1.0
  O  O164  1  0.37070000  0.06214000  0.51810000  1.0
  O  O165  1  0.55090000  0.00706000  0.65530000  1.0
  O  O166  1  0.03560000  0.04820000  0.16360000  1.0
  O  O167  1  0.25110000  0.10130000  0.19340000  1.0
  O  O168  1  0.71700000  0.20243000  0.59760000  1.0
  O  O169  1  0.98610000  0.21647000  0.80570000  1.0
  O  O170  1  0.62930000  0.56214000  0.98190000  1.0
  O  O171  1  0.44910000  0.50706000  0.84470000  1.0
  O  O172  1  0.96440000  0.54820000  0.33640000  1.0
  O  O173  1  0.74890000  0.60130000  0.30660000  1.0
  O  O174  1  0.28300000  0.70243000  0.90240000  1.0
  O  O175  1  0.01390000  0.71647000  0.69430000  1.0
