# generated using pymatgen
data_AlH5C8O5
_symmetry_space_group_name_H-M   'P 1'
_cell_length_a   6.65400000
_cell_length_b   16.44800000
_cell_length_c   13.37500000
_cell_angle_alpha   90.00000000
_cell_angle_beta   90.00000000
_cell_angle_gamma   90.00000000
_symmetry_Int_Tables_number   1
_chemical_formula_structural   AlH5C8O5
_chemical_formula_sum   'Al4 H20 C32 O20'
_cell_volume   1463.82676800
_cell_formula_units_Z   4
loop_
 _symmetry_equiv_pos_site_id
 _symmetry_equiv_pos_as_xyz
  1  'x, y, z'
loop_
 _atom_site_type_symbol
 _atom_site_label
 _atom_site_symmetry_multiplicity
 _atom_site_fract_x
 _atom_site_fract_y
 _atom_site_fract_z
 _atom_site_occupancy
  Al  Al0  1  0.24614000  0.25262000  0.75041000  1.0
  Al  Al1  1  0.74628000  0.25263000  0.75048000  1.0
  Al  Al2  1  0.74603000  0.75263000  0.25041000  1.0
  Al  Al3  1  0.24611000  0.75261000  0.25049000  1.0
  H  H4  1  0.67291000  0.06165000  0.94464000  1.0
  H  H5  1  0.17298000  0.56126000  0.44398000  1.0
  H  H6  1  0.31980000  0.44308000  0.94563000  1.0
  H  H7  1  0.81968000  0.94247000  0.44641000  1.0
  H  H8  1  0.31966000  0.56200000  0.05592000  1.0
  H  H9  1  0.81978000  0.06140000  0.55667000  1.0
  H  H10  1  0.67296000  0.94268000  0.05483000  1.0
  H  H11  1  0.17289000  0.44240000  0.55436000  1.0
  H  H12  1  0.31976000  0.94269000  0.05478000  1.0
  H  H13  1  0.81969000  0.44239000  0.55442000  1.0
  H  H14  1  0.67290000  0.56173000  0.05619000  1.0
  H  H15  1  0.17303000  0.06166000  0.55640000  1.0
  H  H16  1  0.67301000  0.44281000  0.94591000  1.0
  H  H17  1  0.17288000  0.94273000  0.44615000  1.0
  H  H18  1  0.31967000  0.06167000  0.94458000  1.0
  H  H19  1  0.81973000  0.56125000  0.44404000  1.0
  H  H20  1  0.49601000  0.75308000  0.13241000  1.0
  H  H21  1  0.49620000  0.25299000  0.86849000  1.0
  H  H22  1  0.99620000  0.25278000  0.63237000  1.0
  H  H23  1  0.99600000  0.75284000  0.36854000  1.0
  C  C24  1  0.81541000  0.03664000  0.96825000  1.0
  C  C25  1  0.31543000  0.53626000  0.46768000  1.0
  C  C26  1  0.17730000  0.46815000  0.96911000  1.0
  C  C27  1  0.67722000  0.96767000  0.46974000  1.0
  C  C28  1  0.17722000  0.53692000  0.03234000  1.0
  C  C29  1  0.67730000  0.03643000  0.53298000  1.0
  C  C30  1  0.81542000  0.96785000  0.03145000  1.0
  C  C31  1  0.31540000  0.46754000  0.53097000  1.0
  C  C32  1  0.17726000  0.96785000  0.03143000  1.0
  C  C33  1  0.67724000  0.46754000  0.53100000  1.0
  C  C34  1  0.81538000  0.53676000  0.03249000  1.0
  C  C35  1  0.31546000  0.03657000  0.53284000  1.0
  C  C36  1  0.81546000  0.46800000  0.96926000  1.0
  C  C37  1  0.31538000  0.96782000  0.46961000  1.0
  C  C38  1  0.17724000  0.03664000  0.96823000  1.0
  C  C39  1  0.67726000  0.53626000  0.46770000  1.0
  C  C40  1  0.99630000  0.07259000  0.93560000  1.0
  C  C41  1  0.99625000  0.14506000  0.86573000  1.0
  C  C42  1  0.49635000  0.57221000  0.43504000  1.0
  C  C43  1  0.49637000  0.64475000  0.36530000  1.0
  C  C44  1  0.99642000  0.43233000  0.93620000  1.0
  C  C45  1  0.99643000  0.36016000  0.86586000  1.0
  C  C46  1  0.49625000  0.93200000  0.43667000  1.0
  C  C47  1  0.49618000  0.85994000  0.36617000  1.0
  C  C48  1  0.99625000  0.57273000  0.06514000  1.0
  C  C49  1  0.99618000  0.64511000  0.13512000  1.0
  C  C50  1  0.49641000  0.07245000  0.56556000  1.0
  C  C51  1  0.49643000  0.14491000  0.63541000  1.0
  C  C52  1  0.99636000  0.93210000  0.06443000  1.0
  C  C53  1  0.99636000  0.86001000  0.13487000  1.0
  C  C54  1  0.49631000  0.43186000  0.56408000  1.0
  C  C55  1  0.49625000  0.35989000  0.63470000  1.0
  O  O56  1  0.16735000  0.17417000  0.83647000  1.0
  O  O57  1  0.66743000  0.67392000  0.33614000  1.0
  O  O58  1  0.82541000  0.33109000  0.83651000  1.0
  O  O59  1  0.32510000  0.83100000  0.33667000  1.0
  O  O60  1  0.82513000  0.67420000  0.16440000  1.0
  O  O61  1  0.32533000  0.17411000  0.66451000  1.0
  O  O62  1  0.16741000  0.83104000  0.16436000  1.0
  O  O63  1  0.66723000  0.33095000  0.66427000  1.0
  O  O64  1  0.82533000  0.83100000  0.16430000  1.0
  O  O65  1  0.32524000  0.33093000  0.66418000  1.0
  O  O66  1  0.16720000  0.67425000  0.16437000  1.0
  O  O67  1  0.66751000  0.17402000  0.66465000  1.0
  O  O68  1  0.16744000  0.33118000  0.83638000  1.0
  O  O69  1  0.66723000  0.83094000  0.33670000  1.0
  O  O70  1  0.82512000  0.17419000  0.83656000  1.0
  O  O71  1  0.32531000  0.67396000  0.33621000  1.0
  O  O72  1  0.99621000  0.25268000  0.69682000  1.0
  O  O73  1  0.49605000  0.75281000  0.19687000  1.0
  O  O74  1  0.99604000  0.75271000  0.30409000  1.0
  O  O75  1  0.49620000  0.25278000  0.80404000  1.0
