# generated using pymatgen
data_U5H25C30(NO2)12
_symmetry_space_group_name_H-M   'P 1'
_cell_length_a   14.53300000
_cell_length_b   15.47900000
_cell_length_c   15.66600000
_cell_angle_alpha   74.64300000
_cell_angle_beta   74.57600000
_cell_angle_gamma   81.43100000
_symmetry_Int_Tables_number   1
_chemical_formula_structural   U5H25C30(NO2)12
_chemical_formula_sum   'U10 H50 C60 N24 O48'
_cell_volume   3264.21744461
_cell_formula_units_Z   2
loop_
 _symmetry_equiv_pos_site_id
 _symmetry_equiv_pos_as_xyz
  1  'x, y, z'
loop_
 _atom_site_type_symbol
 _atom_site_label
 _atom_site_symmetry_multiplicity
 _atom_site_fract_x
 _atom_site_fract_y
 _atom_site_fract_z
 _atom_site_occupancy
  U  U0  1  0.45585000  0.34330000  0.76294000  1.0
  U  U1  1  0.52106000  0.85895000  0.82052000  1.0
  U  U2  1  0.26824000  0.92117000  0.58451000  1.0
  U  U3  1  0.84190000  0.49701000  0.80762000  1.0
  U  U4  1  0.81348000  0.52101000  0.43292000  1.0
  U  U5  1  0.54415000  0.65670000  0.23706000  1.0
  U  U6  1  0.47894000  0.14105000  0.17948000  1.0
  U  U7  1  0.73176000  0.07883000  0.41549000  1.0
  U  U8  1  0.15810000  0.50299000  0.19238000  1.0
  U  U9  1  0.18652000  0.47899000  0.56708000  1.0
  H  H10  1  0.49950000  0.60210000  0.53460000  1.0
  H  H11  1  0.41940000  0.66330000  0.58460000  1.0
  H  H12  1  0.63660000  0.61090000  0.57810000  1.0
  H  H13  1  0.63570000  0.58910000  0.68170000  1.0
  H  H14  1  0.61250000  0.53600000  0.91420000  1.0
  H  H15  1  0.61600000  0.57770000  0.99400000  1.0
  H  H16  1  0.45990000  0.58920000  0.08390000  1.0
  H  H17  1  0.37550000  0.63880000  0.03980000  1.0
  H  H18  1  0.10490000  0.67390000  0.79780000  1.0
  H  H19  1  0.19730000  0.63330000  0.73830000  1.0
  H  H20  1  0.10640000  0.71560000  0.92510000  1.0
  H  H21  1  0.20490000  0.74100000  0.93060000  1.0
  H  H22  1  0.87510000  0.74920000  0.56360000  1.0
  H  H23  1  0.97930000  0.70340000  0.56000000  1.0
  H  H24  1  0.07250000  0.67460000  0.42930000  1.0
  H  H25  1  0.05690000  0.75130000  0.34520000  1.0
  H  H26  1  0.64050000  0.77030000  0.57020000  1.0
  H  H27  1  0.53970000  0.82310000  0.56930000  1.0
  H  H28  1  0.54920000  0.85410000  0.36830000  1.0
  H  H29  1  0.49940000  0.90130000  0.44740000  1.0
  H  H30  1  0.78330000  0.86170000  0.07080000  1.0
  H  H31  1  0.72390000  0.90280000  0.15180000  1.0
  H  H32  1  0.92930000  0.78840000  0.07330000  1.0
  H  H33  1  0.96020000  0.75200000  0.16740000  1.0
  H  H34  1  0.05240000  0.80620000  0.07620000  1.0
  H  H35  1  0.50050000  0.39790000  0.46540000  1.0
  H  H36  1  0.58060000  0.33670000  0.41540000  1.0
  H  H37  1  0.36340000  0.38910000  0.42190000  1.0
  H  H38  1  0.36430000  0.41090000  0.31830000  1.0
  H  H39  1  0.38750000  0.46400000  0.08580000  1.0
  H  H40  1  0.38400000  0.42230000  0.00600000  1.0
  H  H41  1  0.54010000  0.41080000  0.91610000  1.0
  H  H42  1  0.62450000  0.36120000  0.96020000  1.0
  H  H43  1  0.89510000  0.32610000  0.20220000  1.0
  H  H44  1  0.80270000  0.36670000  0.26170000  1.0
  H  H45  1  0.89360000  0.28440000  0.07490000  1.0
  H  H46  1  0.79510000  0.25900000  0.06940000  1.0
  H  H47  1  0.12490000  0.25080000  0.43640000  1.0
  H  H48  1  0.02070000  0.29660000  0.44000000  1.0
  H  H49  1  0.92750000  0.32540000  0.57070000  1.0
  H  H50  1  0.94310000  0.24870000  0.65480000  1.0
  H  H51  1  0.35950000  0.22970000  0.42980000  1.0
  H  H52  1  0.46030000  0.17690000  0.43070000  1.0
  H  H53  1  0.45080000  0.14590000  0.63170000  1.0
  H  H54  1  0.50060000  0.09870000  0.55260000  1.0
  H  H55  1  0.21670000  0.13830000  0.92920000  1.0
  H  H56  1  0.27610000  0.09720000  0.84820000  1.0
  H  H57  1  0.07070000  0.21160000  0.92670000  1.0
  H  H58  1  0.03980000  0.24800000  0.83260000  1.0
  H  H59  1  0.94760000  0.19380000  0.92380000  1.0
  C  C60  1  0.38220000  0.53580000  0.60850000  1.0
  C  C61  1  0.45340000  0.60390000  0.59180000  1.0
  C  C62  1  0.64240000  0.47970000  0.63550000  1.0
  C  C63  1  0.61020000  0.57300000  0.63730000  1.0
  C  C64  1  0.66850000  0.66010000  0.86730000  1.0
  C  C65  1  0.60060000  0.59120000  0.93500000  1.0
  C  C66  1  0.46330000  0.72650000  0.04940000  1.0
  C  C67  1  0.44340000  0.63800000  0.03560000  1.0
  C  C68  1  0.19260000  0.77060000  0.71450000  1.0
  C  C69  1  0.17350000  0.67740000  0.77460000  1.0
  C  C70  1  0.16660000  0.62040000  0.01820000  1.0
  C  C71  1  0.17090000  0.69190000  0.93000000  1.0
  C  C72  1  0.88220000  0.61460000  0.58220000  1.0
  C  C73  1  0.92110000  0.70340000  0.54090000  1.0
  C  C74  1  0.02740000  0.62790000  0.33660000  1.0
  C  C75  1  0.02970000  0.69890000  0.38890000  1.0
  C  C76  1  0.63420000  0.89690000  0.59040000  1.0
  C  C77  1  0.60820000  0.82850000  0.54890000  1.0
  C  C78  1  0.57320000  0.98270000  0.33870000  1.0
  C  C79  1  0.55850000  0.89530000  0.40190000  1.0
  C  C80  1  0.69000000  0.77530000  0.16410000  1.0
  C  C81  1  0.75950000  0.84860000  0.13650000  1.0
  C  C82  1  0.31780000  0.63740000  0.83460000  1.0
  C  C83  1  0.45670000  0.60520000  0.74430000  1.0
  C  C84  1  0.45020000  0.61960000  0.88140000  1.0
  C  C85  1  0.86990000  0.77030000  0.39960000  1.0
  C  C86  1  0.72010000  0.82890000  0.40260000  1.0
  C  C87  1  0.82190000  0.82060000  0.26750000  1.0
  C  C88  1  0.92940000  0.80230000  0.13010000  1.0
  C  C89  1  0.97300000  0.89000000  0.11500000  1.0
  C  C90  1  0.61780000  0.46420000  0.39150000  1.0
  C  C91  1  0.54660000  0.39610000  0.40820000  1.0
  C  C92  1  0.35760000  0.52030000  0.36450000  1.0
  C  C93  1  0.38980000  0.42700000  0.36270000  1.0
  C  C94  1  0.33150000  0.33990000  0.13270000  1.0
  C  C95  1  0.39940000  0.40880000  0.06500000  1.0
  C  C96  1  0.53670000  0.27350000  0.95060000  1.0
  C  C97  1  0.55660000  0.36200000  0.96440000  1.0
  C  C98  1  0.80740000  0.22940000  0.28550000  1.0
  C  C99  1  0.82650000  0.32260000  0.22540000  1.0
  C  C100  1  0.83340000  0.37960000  0.98180000  1.0
  C  C101  1  0.82910000  0.30810000  0.07000000  1.0
  C  C102  1  0.11780000  0.38540000  0.41780000  1.0
  C  C103  1  0.07890000  0.29660000  0.45910000  1.0
  C  C104  1  0.97260000  0.37210000  0.66340000  1.0
  C  C105  1  0.97030000  0.30110000  0.61110000  1.0
  C  C106  1  0.36580000  0.10310000  0.40960000  1.0
  C  C107  1  0.39180000  0.17150000  0.45110000  1.0
  C  C108  1  0.42680000  0.01730000  0.66130000  1.0
  C  C109  1  0.44150000  0.10470000  0.59810000  1.0
  C  C110  1  0.31000000  0.22470000  0.83590000  1.0
  C  C111  1  0.24050000  0.15140000  0.86350000  1.0
  C  C112  1  0.68220000  0.36260000  0.16540000  1.0
  C  C113  1  0.54330000  0.39480000  0.25570000  1.0
  C  C114  1  0.54980000  0.38040000  0.11860000  1.0
  C  C115  1  0.13010000  0.22970000  0.60040000  1.0
  C  C116  1  0.27990000  0.17110000  0.59740000  1.0
  C  C117  1  0.17810000  0.17940000  0.73250000  1.0
  C  C118  1  0.07060000  0.19770000  0.86990000  1.0
  C  C119  1  0.02700000  0.11000000  0.88500000  1.0
  N  N120  1  0.50470000  0.60050000  0.80540000  1.0
  N  N121  1  0.35530000  0.63530000  0.90220000  1.0
  N  N122  1  0.36120000  0.62380000  0.75270000  1.0
  N  N123  1  0.50410000  0.59260000  0.65980000  1.0
  N  N124  1  0.21900000  0.65530000  0.85130000  1.0
  N  N125  1  0.49810000  0.62130000  0.94640000  1.0
  N  N126  1  0.78700000  0.79140000  0.44820000  1.0
  N  N127  1  0.73260000  0.84430000  0.31140000  1.0
  N  N128  1  0.89540000  0.78850000  0.30520000  1.0
  N  N129  1  0.63460000  0.85310000  0.45010000  1.0
  N  N130  1  0.94240000  0.72660000  0.44020000  1.0
  N  N131  1  0.83850000  0.82900000  0.17620000  1.0
  N  N132  1  0.49530000  0.39950000  0.19460000  1.0
  N  N133  1  0.64470000  0.36470000  0.09780000  1.0
  N  N134  1  0.63880000  0.37620000  0.24730000  1.0
  N  N135  1  0.49590000  0.40740000  0.34020000  1.0
  N  N136  1  0.78100000  0.34470000  0.14870000  1.0
  N  N137  1  0.50190000  0.37870000  0.05360000  1.0
  N  N138  1  0.21300000  0.20860000  0.55180000  1.0
  N  N139  1  0.26740000  0.15570000  0.68860000  1.0
  N  N140  1  0.10460000  0.21150000  0.69480000  1.0
  N  N141  1  0.36540000  0.14690000  0.54990000  1.0
  N  N142  1  0.05760000  0.27340000  0.55980000  1.0
  N  N143  1  0.16150000  0.17100000  0.82380000  1.0
  O  O144  1  0.30890000  0.55990000  0.57860000  1.0
  O  O145  1  0.40110000  0.45590000  0.65110000  1.0
  O  O146  1  0.59620000  0.41600000  0.69780000  1.0
  O  O147  1  0.71850000  0.46030000  0.58240000  1.0
  O  O148  1  0.75560000  0.62990000  0.84650000  1.0
  O  O149  1  0.63840000  0.73700000  0.83860000  1.0
  O  O150  1  0.48640000  0.78930000  0.98430000  1.0
  O  O151  1  0.44760000  0.72870000  0.13290000  1.0
  O  O152  1  0.23780000  0.82180000  0.73760000  1.0
  O  O153  1  0.16800000  0.79270000  0.64070000  1.0
  O  O154  1  0.18560000  0.54090000  0.02550000  1.0
  O  O155  1  0.13800000  0.65000000  0.09120000  1.0
  O  O156  1  0.85690000  0.59610000  0.66590000  1.0
  O  O157  1  0.87930000  0.55950000  0.53630000  1.0
  O  O158  1  0.95550000  0.58950000  0.34840000  1.0
  O  O159  1  0.10570000  0.61170000  0.28080000  1.0
  O  O160  1  0.62970000  0.87310000  0.67470000  1.0
  O  O161  1  0.66200000  0.97200000  0.54300000  1.0
  O  O162  1  0.62530000  0.03120000  0.35040000  1.0
  O  O163  1  0.52730000  0.00630000  0.28000000  1.0
  O  O164  1  0.70810000  0.70170000  0.21420000  1.0
  O  O165  1  0.61340000  0.79420000  0.13530000  1.0
  O  O166  1  0.01610000  0.95330000  0.11410000  1.0
  O  O167  1  0.05300000  0.86000000  0.07100000  1.0
  O  O168  1  0.69110000  0.44010000  0.42140000  1.0
  O  O169  1  0.59890000  0.54410000  0.34890000  1.0
  O  O170  1  0.40380000  0.58400000  0.30220000  1.0
  O  O171  1  0.28150000  0.53970000  0.41760000  1.0
  O  O172  1  0.24440000  0.37010000  0.15350000  1.0
  O  O173  1  0.36160000  0.26300000  0.16140000  1.0
  O  O174  1  0.51360000  0.21070000  0.01570000  1.0
  O  O175  1  0.55240000  0.27130000  0.86710000  1.0
  O  O176  1  0.76220000  0.17820000  0.26240000  1.0
  O  O177  1  0.83200000  0.20730000  0.35930000  1.0
  O  O178  1  0.81440000  0.45910000  0.97450000  1.0
  O  O179  1  0.86200000  0.35000000  0.90880000  1.0
  O  O180  1  0.14310000  0.40390000  0.33410000  1.0
  O  O181  1  0.12070000  0.44050000  0.46370000  1.0
  O  O182  1  0.04450000  0.41050000  0.65160000  1.0
  O  O183  1  0.89430000  0.38830000  0.71920000  1.0
  O  O184  1  0.37030000  0.12690000  0.32530000  1.0
  O  O185  1  0.33800000  0.02800000  0.45700000  1.0
  O  O186  1  0.37470000  0.96880000  0.64960000  1.0
  O  O187  1  0.47270000  0.99370000  0.72000000  1.0
  O  O188  1  0.29190000  0.29830000  0.78580000  1.0
  O  O189  1  0.38660000  0.20580000  0.86470000  1.0
  O  O190  1  0.98390000  0.04670000  0.88590000  1.0
  O  O191  1  0.94700000  0.14000000  0.92900000  1.0
