# generated using pymatgen
data_AgH16(C7N)4
_symmetry_space_group_name_H-M   'P 1'
_cell_length_a   24.86060000
_cell_length_b   24.86060000
_cell_length_c   4.80160000
_cell_angle_alpha   90.00000000
_cell_angle_beta   90.00000000
_cell_angle_gamma   90.00000000
_symmetry_Int_Tables_number   1
_chemical_formula_structural   AgH16(C7N)4
_chemical_formula_sum   'Ag4 H64 C112 N16'
_cell_volume   2967.62615442
_cell_formula_units_Z   4
loop_
 _symmetry_equiv_pos_site_id
 _symmetry_equiv_pos_as_xyz
  1  'x, y, z'
loop_
 _atom_site_type_symbol
 _atom_site_label
 _atom_site_symmetry_multiplicity
 _atom_site_fract_x
 _atom_site_fract_y
 _atom_site_fract_z
 _atom_site_occupancy
  Ag  Ag0  1  0.00000000  0.00000000  0.50000000  1.0
  Ag  Ag1  1  0.50000000  0.50000000  0.00000000  1.0
  Ag  Ag2  1  0.50000000  0.00000000  0.25000000  1.0
  Ag  Ag3  1  0.00000000  0.50000000  0.75000000  1.0
  H  H4  1  0.11840000  0.85020000  0.16980000  1.0
  H  H5  1  0.11850000  0.77940000  0.47800000  1.0
  H  H6  1  0.95810000  0.78080000  0.49280000  1.0
  H  H7  1  0.95630000  0.84730000  0.16420000  1.0
  H  H8  1  0.61840000  0.35020000  0.66980000  1.0
  H  H9  1  0.61850000  0.27940000  0.97800000  1.0
  H  H10  1  0.45810000  0.28080000  0.99280000  1.0
  H  H11  1  0.45630000  0.34730000  0.66420000  1.0
  H  H12  1  0.88160000  0.14980000  0.16980000  1.0
  H  H13  1  0.88150000  0.22060000  0.47800000  1.0
  H  H14  1  0.04190000  0.21920000  0.49280000  1.0
  H  H15  1  0.04370000  0.15270000  0.16420000  1.0
  H  H16  1  0.38160000  0.64980000  0.66980000  1.0
  H  H17  1  0.38150000  0.72060000  0.97800000  1.0
  H  H18  1  0.54190000  0.71920000  0.99280000  1.0
  H  H19  1  0.54370000  0.65270000  0.66420000  1.0
  H  H20  1  0.85020000  0.88160000  0.83020000  1.0
  H  H21  1  0.77940000  0.88150000  0.52200000  1.0
  H  H22  1  0.78080000  0.04190000  0.50720000  1.0
  H  H23  1  0.84730000  0.04370000  0.83580000  1.0
  H  H24  1  0.35020000  0.38160000  0.33020000  1.0
  H  H25  1  0.27940000  0.38150000  0.02200000  1.0
  H  H26  1  0.28080000  0.54190000  0.00720000  1.0
  H  H27  1  0.34730000  0.54370000  0.33580000  1.0
  H  H28  1  0.14980000  0.11840000  0.83020000  1.0
  H  H29  1  0.22060000  0.11850000  0.52200000  1.0
  H  H30  1  0.21920000  0.95810000  0.50720000  1.0
  H  H31  1  0.15270000  0.95630000  0.83580000  1.0
  H  H32  1  0.64980000  0.61840000  0.33020000  1.0
  H  H33  1  0.72060000  0.61850000  0.02200000  1.0
  H  H34  1  0.71920000  0.45810000  0.00720000  1.0
  H  H35  1  0.65270000  0.45630000  0.33580000  1.0
  H  H36  1  0.38160000  0.85020000  0.58020000  1.0
  H  H37  1  0.38150000  0.77940000  0.27200000  1.0
  H  H38  1  0.54190000  0.78080000  0.25720000  1.0
  H  H39  1  0.54370000  0.84730000  0.58580000  1.0
  H  H40  1  0.88160000  0.35020000  0.08020000  1.0
  H  H41  1  0.88150000  0.27940000  0.77200000  1.0
  H  H42  1  0.04190000  0.28080000  0.75720000  1.0
  H  H43  1  0.04370000  0.34730000  0.08580000  1.0
  H  H44  1  0.61840000  0.14980000  0.58020000  1.0
  H  H45  1  0.61850000  0.22060000  0.27200000  1.0
  H  H46  1  0.45810000  0.21920000  0.25720000  1.0
  H  H47  1  0.45630000  0.15270000  0.58580000  1.0
  H  H48  1  0.11840000  0.64980000  0.08020000  1.0
  H  H49  1  0.11850000  0.72060000  0.77200000  1.0
  H  H50  1  0.95810000  0.71920000  0.75720000  1.0
  H  H51  1  0.95630000  0.65270000  0.08580000  1.0
  H  H52  1  0.64980000  0.88160000  0.91980000  1.0
  H  H53  1  0.72060000  0.88150000  0.22800000  1.0
  H  H54  1  0.71920000  0.04190000  0.24280000  1.0
  H  H55  1  0.65270000  0.04370000  0.91420000  1.0
  H  H56  1  0.14980000  0.38160000  0.41980000  1.0
  H  H57  1  0.22060000  0.38150000  0.72800000  1.0
  H  H58  1  0.21920000  0.54190000  0.74280000  1.0
  H  H59  1  0.15270000  0.54370000  0.41420000  1.0
  H  H60  1  0.35020000  0.11840000  0.91980000  1.0
  H  H61  1  0.27940000  0.11850000  0.22800000  1.0
  H  H62  1  0.28080000  0.95810000  0.24280000  1.0
  H  H63  1  0.34730000  0.95630000  0.91420000  1.0
  H  H64  1  0.85020000  0.61840000  0.41980000  1.0
  H  H65  1  0.77940000  0.61850000  0.72800000  1.0
  H  H66  1  0.78080000  0.45810000  0.74280000  1.0
  H  H67  1  0.84730000  0.45630000  0.41420000  1.0
  C  C68  1  0.03680000  0.85600000  0.13350000  1.0
  C  C69  1  0.08530000  0.83540000  0.23200000  1.0
  C  C70  1  0.08510000  0.79390000  0.41880000  1.0
  C  C71  1  0.03870000  0.77240000  0.52370000  1.0
  C  C72  1  0.99130000  0.79440000  0.42350000  1.0
  C  C73  1  0.98980000  0.83440000  0.23100000  1.0
  C  C74  1  0.03500000  0.89810000  0.93230000  1.0
  C  C75  1  0.53680000  0.35600000  0.63350000  1.0
  C  C76  1  0.58530000  0.33540000  0.73200000  1.0
  C  C77  1  0.58510000  0.29390000  0.91880000  1.0
  C  C78  1  0.53870000  0.27240000  0.02370000  1.0
  C  C79  1  0.49130000  0.29440000  0.92350000  1.0
  C  C80  1  0.48980000  0.33440000  0.73100000  1.0
  C  C81  1  0.53500000  0.39810000  0.43230000  1.0
  C  C82  1  0.96320000  0.14400000  0.13350000  1.0
  C  C83  1  0.91470000  0.16460000  0.23200000  1.0
  C  C84  1  0.91490000  0.20610000  0.41880000  1.0
  C  C85  1  0.96130000  0.22760000  0.52370000  1.0
  C  C86  1  0.00870000  0.20560000  0.42350000  1.0
  C  C87  1  0.01020000  0.16560000  0.23100000  1.0
  C  C88  1  0.96500000  0.10190000  0.93230000  1.0
  C  C89  1  0.46320000  0.64400000  0.63350000  1.0
  C  C90  1  0.41470000  0.66460000  0.73200000  1.0
  C  C91  1  0.41490000  0.70610000  0.91880000  1.0
  C  C92  1  0.46130000  0.72760000  0.02370000  1.0
  C  C93  1  0.50870000  0.70560000  0.92350000  1.0
  C  C94  1  0.51020000  0.66560000  0.73100000  1.0
  C  C95  1  0.46500000  0.60190000  0.43230000  1.0
  C  C96  1  0.85600000  0.96320000  0.86650000  1.0
  C  C97  1  0.83540000  0.91470000  0.76800000  1.0
  C  C98  1  0.79390000  0.91490000  0.58120000  1.0
  C  C99  1  0.77240000  0.96130000  0.47630000  1.0
  C  C100  1  0.79440000  0.00870000  0.57650000  1.0
  C  C101  1  0.83440000  0.01020000  0.76900000  1.0
  C  C102  1  0.89810000  0.96500000  0.06770000  1.0
  C  C103  1  0.35600000  0.46320000  0.36650000  1.0
  C  C104  1  0.33540000  0.41470000  0.26800000  1.0
  C  C105  1  0.29390000  0.41490000  0.08120000  1.0
  C  C106  1  0.27240000  0.46130000  0.97630000  1.0
  C  C107  1  0.29440000  0.50870000  0.07650000  1.0
  C  C108  1  0.33440000  0.51020000  0.26900000  1.0
  C  C109  1  0.39810000  0.46500000  0.56770000  1.0
  C  C110  1  0.14400000  0.03680000  0.86650000  1.0
  C  C111  1  0.16460000  0.08530000  0.76800000  1.0
  C  C112  1  0.20610000  0.08510000  0.58120000  1.0
  C  C113  1  0.22760000  0.03870000  0.47630000  1.0
  C  C114  1  0.20560000  0.99130000  0.57650000  1.0
  C  C115  1  0.16560000  0.98980000  0.76900000  1.0
  C  C116  1  0.10190000  0.03500000  0.06770000  1.0
  C  C117  1  0.64400000  0.53680000  0.36650000  1.0
  C  C118  1  0.66460000  0.58530000  0.26800000  1.0
  C  C119  1  0.70610000  0.58510000  0.08120000  1.0
  C  C120  1  0.72760000  0.53870000  0.97630000  1.0
  C  C121  1  0.70560000  0.49130000  0.07650000  1.0
  C  C122  1  0.66560000  0.48980000  0.26900000  1.0
  C  C123  1  0.60190000  0.53500000  0.56770000  1.0
  C  C124  1  0.46320000  0.85600000  0.61650000  1.0
  C  C125  1  0.41470000  0.83540000  0.51800000  1.0
  C  C126  1  0.41490000  0.79390000  0.33120000  1.0
  C  C127  1  0.46130000  0.77240000  0.22630000  1.0
  C  C128  1  0.50870000  0.79440000  0.32650000  1.0
  C  C129  1  0.51020000  0.83440000  0.51900000  1.0
  C  C130  1  0.46500000  0.89810000  0.81770000  1.0
  C  C131  1  0.96320000  0.35600000  0.11650000  1.0
  C  C132  1  0.91470000  0.33540000  0.01800000  1.0
  C  C133  1  0.91490000  0.29390000  0.83120000  1.0
  C  C134  1  0.96130000  0.27240000  0.72630000  1.0
  C  C135  1  0.00870000  0.29440000  0.82650000  1.0
  C  C136  1  0.01020000  0.33440000  0.01900000  1.0
  C  C137  1  0.96500000  0.39810000  0.31770000  1.0
  C  C138  1  0.53680000  0.14400000  0.61650000  1.0
  C  C139  1  0.58530000  0.16460000  0.51800000  1.0
  C  C140  1  0.58510000  0.20610000  0.33120000  1.0
  C  C141  1  0.53870000  0.22760000  0.22630000  1.0
  C  C142  1  0.49130000  0.20560000  0.32650000  1.0
  C  C143  1  0.48980000  0.16560000  0.51900000  1.0
  C  C144  1  0.53500000  0.10190000  0.81770000  1.0
  C  C145  1  0.03680000  0.64400000  0.11650000  1.0
  C  C146  1  0.08530000  0.66460000  0.01800000  1.0
  C  C147  1  0.08510000  0.70610000  0.83120000  1.0
  C  C148  1  0.03870000  0.72760000  0.72630000  1.0
  C  C149  1  0.99130000  0.70560000  0.82650000  1.0
  C  C150  1  0.98980000  0.66560000  0.01900000  1.0
  C  C151  1  0.03500000  0.60190000  0.31770000  1.0
  C  C152  1  0.64400000  0.96320000  0.88350000  1.0
  C  C153  1  0.66460000  0.91470000  0.98200000  1.0
  C  C154  1  0.70610000  0.91490000  0.16880000  1.0
  C  C155  1  0.72760000  0.96130000  0.27370000  1.0
  C  C156  1  0.70560000  0.00870000  0.17350000  1.0
  C  C157  1  0.66560000  0.01020000  0.98100000  1.0
  C  C158  1  0.60190000  0.96500000  0.68230000  1.0
  C  C159  1  0.14400000  0.46320000  0.38350000  1.0
  C  C160  1  0.16460000  0.41470000  0.48200000  1.0
  C  C161  1  0.20610000  0.41490000  0.66880000  1.0
  C  C162  1  0.22760000  0.46130000  0.77370000  1.0
  C  C163  1  0.20560000  0.50870000  0.67350000  1.0
  C  C164  1  0.16560000  0.51020000  0.48100000  1.0
  C  C165  1  0.10190000  0.46500000  0.18230000  1.0
  C  C166  1  0.35600000  0.03680000  0.88350000  1.0
  C  C167  1  0.33540000  0.08530000  0.98200000  1.0
  C  C168  1  0.29390000  0.08510000  0.16880000  1.0
  C  C169  1  0.27240000  0.03870000  0.27370000  1.0
  C  C170  1  0.29440000  0.99130000  0.17350000  1.0
  C  C171  1  0.33440000  0.98980000  0.98100000  1.0
  C  C172  1  0.39810000  0.03500000  0.68230000  1.0
  C  C173  1  0.85600000  0.53680000  0.38350000  1.0
  C  C174  1  0.83540000  0.58530000  0.48200000  1.0
  C  C175  1  0.79390000  0.58510000  0.66880000  1.0
  C  C176  1  0.77240000  0.53870000  0.77370000  1.0
  C  C177  1  0.79440000  0.49130000  0.67350000  1.0
  C  C178  1  0.83440000  0.48980000  0.48100000  1.0
  C  C179  1  0.89810000  0.53500000  0.18230000  1.0
  N  N180  1  0.03180000  0.93180000  0.76880000  1.0
  N  N181  1  0.53180000  0.43180000  0.26880000  1.0
  N  N182  1  0.96820000  0.06820000  0.76880000  1.0
  N  N183  1  0.46820000  0.56820000  0.26880000  1.0
  N  N184  1  0.93180000  0.96820000  0.23120000  1.0
  N  N185  1  0.43180000  0.46820000  0.73120000  1.0
  N  N186  1  0.06820000  0.03180000  0.23120000  1.0
  N  N187  1  0.56820000  0.53180000  0.73120000  1.0
  N  N188  1  0.46820000  0.93180000  0.98120000  1.0
  N  N189  1  0.96820000  0.43180000  0.48120000  1.0
  N  N190  1  0.53180000  0.06820000  0.98120000  1.0
  N  N191  1  0.03180000  0.56820000  0.48120000  1.0
  N  N192  1  0.56820000  0.96820000  0.51880000  1.0
  N  N193  1  0.06820000  0.46820000  0.01880000  1.0
  N  N194  1  0.43180000  0.03180000  0.51880000  1.0
  N  N195  1  0.93180000  0.53180000  0.01880000  1.0
