# generated using pymatgen
data_AgH16(C7N)4
_symmetry_space_group_name_H-M   'P 1'
_cell_length_a   5.70180000
_cell_length_b   21.66120000
_cell_length_c   21.56870000
_cell_angle_alpha   89.97600000
_cell_angle_beta   89.99200000
_cell_angle_gamma   89.98900000
_symmetry_Int_Tables_number   1
_chemical_formula_structural   AgH16(C7N)4
_chemical_formula_sum   'Ag4 H64 C112 N16'
_cell_volume   2663.90302764
_cell_formula_units_Z   4
loop_
 _symmetry_equiv_pos_site_id
 _symmetry_equiv_pos_as_xyz
  1  'x, y, z'
loop_
 _atom_site_type_symbol
 _atom_site_label
 _atom_site_symmetry_multiplicity
 _atom_site_fract_x
 _atom_site_fract_y
 _atom_site_fract_z
 _atom_site_occupancy
  Ag  Ag0  1  0.86944000  0.00060000  0.24984000  1.0
  Ag  Ag1  1  0.36944000  0.50060000  0.74984000  1.0
  Ag  Ag2  1  0.13056000  0.99940000  0.75016000  1.0
  Ag  Ag3  1  0.63056000  0.49940000  0.25016000  1.0
  H  H4  1  0.19410000  0.84650000  0.15540000  1.0
  H  H5  1  0.87470000  0.77870000  0.15610000  1.0
  H  H6  1  0.88760000  0.77610000  0.34390000  1.0
  H  H7  1  0.20700000  0.84390000  0.34330000  1.0
  H  H8  1  0.20720000  0.15420000  0.15610000  1.0
  H  H9  1  0.88470000  0.22110000  0.15620000  1.0
  H  H10  1  0.88330000  0.22030000  0.34410000  1.0
  H  H11  1  0.20570000  0.15350000  0.34400000  1.0
  H  H12  1  0.54340000  0.09530000  0.09400000  1.0
  H  H13  1  0.86560000  0.09390000  0.02680000  1.0
  H  H14  1  0.86840000  0.90690000  0.03170000  1.0
  H  H15  1  0.54620000  0.90830000  0.09890000  1.0
  H  H16  1  0.54670000  0.90850000  0.40180000  1.0
  H  H17  1  0.86750000  0.90730000  0.46940000  1.0
  H  H18  1  0.86790000  0.09430000  0.47260000  1.0
  H  H19  1  0.54710000  0.09560000  0.40490000  1.0
  H  H20  1  0.69410000  0.34650000  0.65540000  1.0
  H  H21  1  0.37470000  0.27870000  0.65610000  1.0
  H  H22  1  0.38760000  0.27610000  0.84390000  1.0
  H  H23  1  0.70700000  0.34390000  0.84330000  1.0
  H  H24  1  0.70720000  0.65420000  0.65610000  1.0
  H  H25  1  0.38470000  0.72110000  0.65620000  1.0
  H  H26  1  0.38330000  0.72030000  0.84410000  1.0
  H  H27  1  0.70570000  0.65350000  0.84400000  1.0
  H  H28  1  0.04340000  0.59530000  0.59400000  1.0
  H  H29  1  0.36560000  0.59390000  0.52680000  1.0
  H  H30  1  0.36840000  0.40690000  0.53170000  1.0
  H  H31  1  0.04620000  0.40830000  0.59890000  1.0
  H  H32  1  0.04670000  0.40850000  0.90180000  1.0
  H  H33  1  0.36750000  0.40730000  0.96940000  1.0
  H  H34  1  0.36790000  0.59430000  0.97260000  1.0
  H  H35  1  0.04710000  0.59560000  0.90490000  1.0
  H  H36  1  0.80590000  0.15350000  0.84460000  1.0
  H  H37  1  0.12530000  0.22130000  0.84390000  1.0
  H  H38  1  0.11240000  0.22390000  0.65610000  1.0
  H  H39  1  0.79300000  0.15610000  0.65670000  1.0
  H  H40  1  0.79280000  0.84580000  0.84390000  1.0
  H  H41  1  0.11530000  0.77890000  0.84380000  1.0
  H  H42  1  0.11670000  0.77970000  0.65590000  1.0
  H  H43  1  0.79430000  0.84650000  0.65600000  1.0
  H  H44  1  0.45660000  0.90470000  0.90600000  1.0
  H  H45  1  0.13440000  0.90610000  0.97320000  1.0
  H  H46  1  0.13160000  0.09310000  0.96830000  1.0
  H  H47  1  0.45380000  0.09170000  0.90110000  1.0
  H  H48  1  0.45330000  0.09150000  0.59820000  1.0
  H  H49  1  0.13250000  0.09270000  0.53060000  1.0
  H  H50  1  0.13210000  0.90570000  0.52740000  1.0
  H  H51  1  0.45290000  0.90440000  0.59510000  1.0
  H  H52  1  0.30590000  0.65350000  0.34460000  1.0
  H  H53  1  0.62530000  0.72130000  0.34390000  1.0
  H  H54  1  0.61240000  0.72390000  0.15610000  1.0
  H  H55  1  0.29300000  0.65610000  0.15670000  1.0
  H  H56  1  0.29280000  0.34580000  0.34390000  1.0
  H  H57  1  0.61530000  0.27890000  0.34380000  1.0
  H  H58  1  0.61670000  0.27970000  0.15590000  1.0
  H  H59  1  0.29430000  0.34650000  0.15600000  1.0
  H  H60  1  0.95660000  0.40470000  0.40600000  1.0
  H  H61  1  0.63440000  0.40610000  0.47320000  1.0
  H  H62  1  0.63160000  0.59310000  0.46830000  1.0
  H  H63  1  0.95380000  0.59170000  0.40110000  1.0
  H  H64  1  0.95330000  0.59150000  0.09820000  1.0
  H  H65  1  0.63250000  0.59270000  0.03060000  1.0
  H  H66  1  0.63210000  0.40570000  0.02740000  1.0
  H  H67  1  0.95290000  0.40440000  0.09510000  1.0
  C  C68  1  0.23060000  0.85160000  0.24930000  1.0
  C  C69  1  0.13190000  0.83220000  0.19370000  1.0
  C  C70  1  0.94220000  0.79190000  0.19410000  1.0
  C  C71  1  0.85120000  0.77100000  0.25000000  1.0
  C  C72  1  0.94980000  0.79040000  0.30570000  1.0
  C  C73  1  0.13960000  0.83070000  0.30530000  1.0
  C  C74  1  0.43170000  0.89040000  0.24980000  1.0
  C  C75  1  0.23680000  0.14760000  0.25010000  1.0
  C  C76  1  0.14140000  0.16770000  0.19430000  1.0
  C  C77  1  0.94990000  0.20740000  0.19430000  1.0
  C  C78  1  0.85370000  0.22700000  0.25020000  1.0
  C  C79  1  0.94900000  0.20690000  0.30590000  1.0
  C  C80  1  0.14060000  0.16720000  0.30590000  1.0
  C  C81  1  0.44900000  0.10700000  0.25050000  1.0
  C  C82  1  0.51450000  0.00190000  0.10270000  1.0
  C  C83  1  0.60940000  0.05710000  0.08130000  1.0
  C  C84  1  0.80080000  0.05620000  0.04140000  1.0
  C  C85  1  0.89730000  0.00030000  0.02290000  1.0
  C  C86  1  0.80250000  0.94510000  0.04430000  1.0
  C  C87  1  0.61100000  0.94590000  0.08420000  1.0
  C  C88  1  0.31310000  0.00160000  0.14090000  1.0
  C  C89  1  0.51670000  0.00210000  0.39700000  1.0
  C  C90  1  0.61190000  0.94620000  0.41620000  1.0
  C  C91  1  0.80250000  0.94550000  0.45630000  1.0
  C  C92  1  0.89790000  0.00070000  0.47740000  1.0
  C  C93  1  0.80270000  0.05660000  0.45820000  1.0
  C  C94  1  0.61210000  0.05730000  0.41800000  1.0
  C  C95  1  0.30870000  0.00090000  0.35990000  1.0
  C  C96  1  0.73060000  0.35160000  0.74930000  1.0
  C  C97  1  0.63190000  0.33220000  0.69370000  1.0
  C  C98  1  0.44220000  0.29190000  0.69410000  1.0
  C  C99  1  0.35120000  0.27100000  0.75000000  1.0
  C  C100  1  0.44980000  0.29040000  0.80570000  1.0
  C  C101  1  0.63960000  0.33070000  0.80530000  1.0
  C  C102  1  0.93170000  0.39040000  0.74980000  1.0
  C  C103  1  0.73680000  0.64760000  0.75010000  1.0
  C  C104  1  0.64140000  0.66770000  0.69430000  1.0
  C  C105  1  0.44990000  0.70740000  0.69430000  1.0
  C  C106  1  0.35370000  0.72700000  0.75020000  1.0
  C  C107  1  0.44900000  0.70690000  0.80590000  1.0
  C  C108  1  0.64060000  0.66720000  0.80590000  1.0
  C  C109  1  0.94900000  0.60700000  0.75050000  1.0
  C  C110  1  0.01450000  0.50190000  0.60270000  1.0
  C  C111  1  0.10940000  0.55710000  0.58130000  1.0
  C  C112  1  0.30080000  0.55620000  0.54140000  1.0
  C  C113  1  0.39730000  0.50030000  0.52290000  1.0
  C  C114  1  0.30250000  0.44510000  0.54430000  1.0
  C  C115  1  0.11100000  0.44590000  0.58420000  1.0
  C  C116  1  0.81310000  0.50160000  0.64090000  1.0
  C  C117  1  0.01670000  0.50210000  0.89700000  1.0
  C  C118  1  0.11190000  0.44620000  0.91620000  1.0
  C  C119  1  0.30250000  0.44550000  0.95630000  1.0
  C  C120  1  0.39790000  0.50070000  0.97740000  1.0
  C  C121  1  0.30270000  0.55660000  0.95820000  1.0
  C  C122  1  0.11210000  0.55730000  0.91800000  1.0
  C  C123  1  0.80870000  0.50090000  0.85990000  1.0
  C  C124  1  0.76940000  0.14840000  0.75070000  1.0
  C  C125  1  0.86810000  0.16780000  0.80630000  1.0
  C  C126  1  0.05780000  0.20810000  0.80590000  1.0
  C  C127  1  0.14880000  0.22900000  0.75000000  1.0
  C  C128  1  0.05020000  0.20960000  0.69430000  1.0
  C  C129  1  0.86040000  0.16930000  0.69470000  1.0
  C  C130  1  0.56830000  0.10960000  0.75020000  1.0
  C  C131  1  0.76320000  0.85240000  0.74990000  1.0
  C  C132  1  0.85860000  0.83230000  0.80570000  1.0
  C  C133  1  0.05010000  0.79260000  0.80570000  1.0
  C  C134  1  0.14630000  0.77300000  0.74980000  1.0
  C  C135  1  0.05100000  0.79310000  0.69410000  1.0
  C  C136  1  0.85940000  0.83280000  0.69410000  1.0
  C  C137  1  0.55100000  0.89300000  0.74950000  1.0
  C  C138  1  0.48550000  0.99810000  0.89730000  1.0
  C  C139  1  0.39060000  0.94290000  0.91870000  1.0
  C  C140  1  0.19920000  0.94380000  0.95860000  1.0
  C  C141  1  0.10270000  0.99970000  0.97710000  1.0
  C  C142  1  0.19750000  0.05490000  0.95570000  1.0
  C  C143  1  0.38900000  0.05410000  0.91580000  1.0
  C  C144  1  0.68690000  0.99840000  0.85910000  1.0
  C  C145  1  0.48330000  0.99790000  0.60300000  1.0
  C  C146  1  0.38810000  0.05380000  0.58380000  1.0
  C  C147  1  0.19750000  0.05450000  0.54370000  1.0
  C  C148  1  0.10210000  0.99930000  0.52260000  1.0
  C  C149  1  0.19730000  0.94340000  0.54180000  1.0
  C  C150  1  0.38790000  0.94270000  0.58200000  1.0
  C  C151  1  0.69130000  0.99910000  0.64010000  1.0
  C  C152  1  0.26940000  0.64840000  0.25070000  1.0
  C  C153  1  0.36810000  0.66780000  0.30630000  1.0
  C  C154  1  0.55780000  0.70810000  0.30590000  1.0
  C  C155  1  0.64880000  0.72900000  0.25000000  1.0
  C  C156  1  0.55020000  0.70960000  0.19430000  1.0
  C  C157  1  0.36040000  0.66930000  0.19470000  1.0
  C  C158  1  0.06830000  0.60960000  0.25020000  1.0
  C  C159  1  0.26320000  0.35240000  0.24990000  1.0
  C  C160  1  0.35860000  0.33230000  0.30570000  1.0
  C  C161  1  0.55010000  0.29260000  0.30570000  1.0
  C  C162  1  0.64630000  0.27300000  0.24980000  1.0
  C  C163  1  0.55100000  0.29310000  0.19410000  1.0
  C  C164  1  0.35940000  0.33280000  0.19410000  1.0
  C  C165  1  0.05100000  0.39300000  0.24950000  1.0
  C  C166  1  0.98550000  0.49810000  0.39730000  1.0
  C  C167  1  0.89060000  0.44290000  0.41870000  1.0
  C  C168  1  0.69920000  0.44380000  0.45860000  1.0
  C  C169  1  0.60270000  0.49970000  0.47710000  1.0
  C  C170  1  0.69750000  0.55490000  0.45570000  1.0
  C  C171  1  0.88900000  0.55410000  0.41580000  1.0
  C  C172  1  0.18690000  0.49840000  0.35910000  1.0
  C  C173  1  0.98330000  0.49790000  0.10300000  1.0
  C  C174  1  0.88810000  0.55380000  0.08380000  1.0
  C  C175  1  0.69750000  0.55450000  0.04370000  1.0
  C  C176  1  0.60210000  0.49930000  0.02260000  1.0
  C  C177  1  0.69730000  0.44340000  0.04180000  1.0
  C  C178  1  0.88790000  0.44270000  0.08200000  1.0
  C  C179  1  0.19130000  0.49910000  0.14010000  1.0
  N  N180  1  0.59520000  0.92160000  0.24960000  1.0
  N  N181  1  0.60840000  0.07660000  0.25000000  1.0
  N  N182  1  0.14110000  0.00270000  0.17190000  1.0
  N  N183  1  0.14000000  0.00290000  0.32980000  1.0
  N  N184  1  0.09520000  0.42160000  0.74960000  1.0
  N  N185  1  0.10840000  0.57660000  0.75000000  1.0
  N  N186  1  0.64110000  0.50270000  0.67190000  1.0
  N  N187  1  0.64000000  0.50290000  0.82980000  1.0
  N  N188  1  0.40480000  0.07840000  0.75040000  1.0
  N  N189  1  0.39160000  0.92340000  0.75000000  1.0
  N  N190  1  0.85890000  0.99730000  0.82810000  1.0
  N  N191  1  0.86000000  0.99710000  0.67020000  1.0
  N  N192  1  0.90480000  0.57840000  0.25040000  1.0
  N  N193  1  0.89160000  0.42340000  0.25000000  1.0
  N  N194  1  0.35890000  0.49730000  0.32810000  1.0
  N  N195  1  0.36000000  0.49710000  0.17020000  1.0
