# generated using pymatgen
data_EuHC5(NO2)2
_symmetry_space_group_name_H-M   'P 1'
_cell_length_a   16.13900000
_cell_length_b   16.48300000
_cell_length_c   16.48300000
_cell_angle_alpha   76.13280000
_cell_angle_beta   60.68800000
_cell_angle_gamma   60.68810000
_symmetry_Int_Tables_number   1
_chemical_formula_structural   EuHC5(NO2)2
_chemical_formula_sum   'Eu16 H16 C80 N32 O64'
_cell_volume   3333.87583346
_cell_formula_units_Z   16
loop_
 _symmetry_equiv_pos_site_id
 _symmetry_equiv_pos_as_xyz
  1  'x, y, z'
loop_
 _atom_site_type_symbol
 _atom_site_label
 _atom_site_symmetry_multiplicity
 _atom_site_fract_x
 _atom_site_fract_y
 _atom_site_fract_z
 _atom_site_occupancy
  Eu  Eu0  1  0.58500000  0.62099000  0.03199000  1.0
  Eu  Eu1  1  0.14972000  0.97624000  0.38660000  1.0
  Eu  Eu2  1  0.73797000  0.87901000  0.46801000  1.0
  Eu  Eu3  1  0.01256000  0.52376000  0.11340000  1.0
  Eu  Eu4  1  0.61698000  0.96801000  0.12100000  1.0
  Eu  Eu5  1  0.53632000  0.61340000  0.47624000  1.0
  Eu  Eu6  1  0.20599000  0.53199000  0.37900000  1.0
  Eu  Eu7  1  0.12596000  0.88660000  0.02376000  1.0
  Eu  Eu8  1  0.41500000  0.37901000  0.96801000  1.0
  Eu  Eu9  1  0.85028000  0.02376000  0.61340000  1.0
  Eu  Eu10  1  0.26203000  0.12099000  0.53199000  1.0
  Eu  Eu11  1  0.98744000  0.47624000  0.88660000  1.0
  Eu  Eu12  1  0.38302000  0.03199000  0.87900000  1.0
  Eu  Eu13  1  0.46368000  0.38660000  0.52376000  1.0
  Eu  Eu14  1  0.79401000  0.46801000  0.62100000  1.0
  Eu  Eu15  1  0.87404000  0.11340000  0.97624000  1.0
  H  H16  1  0.31120000  0.74690000  0.24950000  1.0
  H  H17  1  0.48200000  0.60200000  0.28200000  1.0
  H  H18  1  0.80760000  0.75310000  0.25050000  1.0
  H  H19  1  0.86600000  0.89800000  0.21800000  1.0
  H  H20  1  0.56070000  0.75050000  0.24690000  1.0
  H  H21  1  0.76400000  0.71800000  0.10200000  1.0
  H  H22  1  0.05810000  0.74950000  0.25310000  1.0
  H  H23  1  0.08400000  0.78200000  0.39800000  1.0
  H  H24  1  0.68880000  0.25310000  0.75050000  1.0
  H  H25  1  0.51800000  0.39800000  0.71800000  1.0
  H  H26  1  0.19240000  0.24690000  0.74950000  1.0
  H  H27  1  0.13400000  0.10200000  0.78200000  1.0
  H  H28  1  0.43930000  0.24950000  0.75310000  1.0
  H  H29  1  0.23600000  0.28200000  0.89800000  1.0
  H  H30  1  0.94190000  0.25050000  0.74690000  1.0
  H  H31  1  0.91600000  0.21800000  0.60200000  1.0
  C  C32  1  0.34760000  0.78330000  0.22310000  1.0
  C  C33  1  0.38880000  0.89420000  0.20240000  1.0
  C  C34  1  0.46470000  0.82920000  0.13200000  1.0
  C  C35  1  0.37040000  0.98450000  0.22410000  1.0
  C  C36  1  0.56540000  0.82160000  0.05260000  1.0
  C  C37  1  0.55320000  0.58690000  0.25890000  1.0
  C  C38  1  0.71510000  0.55750000  0.16310000  1.0
  C  C39  1  0.70300000  0.54940000  0.25320000  1.0
  C  C40  1  0.80180000  0.54670000  0.07010000  1.0
  C  C41  1  0.77450000  0.53160000  0.29420000  1.0
  C  C42  1  0.85400000  0.71670000  0.27690000  1.0
  C  C43  1  0.98540000  0.60580000  0.29760000  1.0
  C  C44  1  0.92590000  0.67080000  0.36800000  1.0
  C  C45  1  0.07900000  0.51550000  0.27590000  1.0
  C  C46  1  0.93960000  0.67840000  0.44740000  1.0
  C  C47  1  0.89900000  0.91310000  0.24110000  1.0
  C  C48  1  0.93570000  0.94250000  0.33690000  1.0
  C  C49  1  0.00560000  0.95060000  0.24680000  1.0
  C  C50  1  0.91860000  0.95330000  0.42990000  1.0
  C  C51  1  0.10030000  0.96840000  0.20580000  1.0
  C  C52  1  0.57070000  0.77690000  0.28330000  1.0
  C  C53  1  0.59120000  0.79760000  0.39420000  1.0
  C  C54  1  0.59670000  0.86800000  0.32920000  1.0
  C  C55  1  0.59450000  0.77590000  0.48450000  1.0
  C  C56  1  0.61800000  0.94740000  0.32160000  1.0
  C  C57  1  0.81210000  0.74110000  0.08690000  1.0
  C  C58  1  0.87820000  0.83690000  0.05750000  1.0
  C  C59  1  0.95620000  0.74680000  0.04940000  1.0
  C  C60  1  0.87190000  0.92990000  0.04670000  1.0
  C  C61  1  0.06870000  0.70580000  0.03160000  1.0
  C  C62  1  0.13090000  0.72310000  0.21670000  1.0
  C  C63  1  0.28300000  0.70240000  0.10580000  1.0
  C  C64  1  0.29390000  0.63200000  0.17080000  1.0
  C  C65  1  0.35490000  0.72410000  0.01550000  1.0
  C  C66  1  0.38700000  0.55260000  0.17840000  1.0
  C  C67  1  0.14010000  0.75890000  0.41310000  1.0
  C  C68  1  0.27260000  0.66310000  0.44250000  1.0
  C  C69  1  0.25240000  0.75320000  0.45060000  1.0
  C  C70  1  0.34850000  0.57010000  0.45330000  1.0
  C  C71  1  0.30610000  0.79420000  0.46840000  1.0
  C  C72  1  0.65240000  0.21670000  0.77690000  1.0
  C  C73  1  0.61120000  0.10580000  0.79760000  1.0
  C  C74  1  0.53530000  0.17080000  0.86800000  1.0
  C  C75  1  0.62960000  0.01550000  0.77590000  1.0
  C  C76  1  0.43460000  0.17840000  0.94740000  1.0
  C  C77  1  0.44680000  0.41310000  0.74110000  1.0
  C  C78  1  0.28490000  0.44250000  0.83690000  1.0
  C  C79  1  0.29700000  0.45060000  0.74680000  1.0
  C  C80  1  0.19820000  0.45330000  0.92990000  1.0
  C  C81  1  0.22550000  0.46840000  0.70580000  1.0
  C  C82  1  0.14600000  0.28330000  0.72310000  1.0
  C  C83  1  0.01460000  0.39420000  0.70240000  1.0
  C  C84  1  0.07410000  0.32920000  0.63200000  1.0
  C  C85  1  0.92100000  0.48450000  0.72410000  1.0
  C  C86  1  0.06040000  0.32160000  0.55260000  1.0
  C  C87  1  0.10100000  0.08690000  0.75890000  1.0
  C  C88  1  0.06430000  0.05750000  0.66310000  1.0
  C  C89  1  0.99440000  0.04940000  0.75320000  1.0
  C  C90  1  0.08140000  0.04670000  0.57010000  1.0
  C  C91  1  0.89970000  0.03160000  0.79420000  1.0
  C  C92  1  0.42930000  0.22310000  0.71670000  1.0
  C  C93  1  0.40880000  0.20240000  0.60580000  1.0
  C  C94  1  0.40330000  0.13200000  0.67080000  1.0
  C  C95  1  0.40550000  0.22410000  0.51550000  1.0
  C  C96  1  0.38200000  0.05260000  0.67840000  1.0
  C  C97  1  0.18790000  0.25890000  0.91310000  1.0
  C  C98  1  0.12180000  0.16310000  0.94250000  1.0
  C  C99  1  0.04380000  0.25320000  0.95060000  1.0
  C  C100  1  0.12810000  0.07010000  0.95330000  1.0
  C  C101  1  0.93130000  0.29420000  0.96840000  1.0
  C  C102  1  0.86910000  0.27690000  0.78330000  1.0
  C  C103  1  0.71700000  0.29760000  0.89420000  1.0
  C  C104  1  0.70610000  0.36800000  0.82920000  1.0
  C  C105  1  0.64510000  0.27590000  0.98450000  1.0
  C  C106  1  0.61300000  0.44740000  0.82160000  1.0
  C  C107  1  0.85990000  0.24110000  0.58690000  1.0
  C  C108  1  0.72740000  0.33690000  0.55750000  1.0
  C  C109  1  0.74760000  0.24680000  0.54940000  1.0
  C  C110  1  0.65150000  0.42990000  0.54670000  1.0
  C  C111  1  0.69390000  0.20580000  0.53160000  1.0
  N  N112  1  0.43810000  0.75870000  0.14510000  1.0
  N  N113  1  0.31290000  0.86360000  0.26060000  1.0
  N  N114  1  0.61760000  0.58190000  0.16810000  1.0
  N  N115  1  0.59950000  0.56820000  0.31380000  1.0
  N  N116  1  0.84190000  0.74130000  0.35490000  1.0
  N  N117  1  0.93710000  0.63640000  0.23940000  1.0
  N  N118  1  0.86760000  0.91810000  0.33190000  1.0
  N  N119  1  0.98150000  0.93180000  0.18620000  1.0
  N  N120  1  0.58320000  0.85490000  0.25870000  1.0
  N  N121  1  0.57350000  0.73940000  0.36360000  1.0
  N  N122  1  0.78570000  0.83190000  0.08190000  1.0
  N  N123  1  0.91330000  0.68620000  0.06820000  1.0
  N  N124  1  0.19680000  0.64510000  0.24130000  1.0
  N  N125  1  0.17650000  0.76060000  0.13640000  1.0
  N  N126  1  0.19950000  0.66810000  0.41810000  1.0
  N  N127  1  0.16770000  0.81380000  0.43180000  1.0
  N  N128  1  0.56190000  0.24130000  0.85490000  1.0
  N  N129  1  0.68710000  0.13640000  0.73940000  1.0
  N  N130  1  0.38240000  0.41810000  0.83190000  1.0
  N  N131  1  0.40050000  0.43180000  0.68620000  1.0
  N  N132  1  0.15810000  0.25870000  0.64510000  1.0
  N  N133  1  0.06290000  0.36360000  0.76060000  1.0
  N  N134  1  0.13240000  0.08190000  0.66810000  1.0
  N  N135  1  0.01850000  0.06820000  0.81380000  1.0
  N  N136  1  0.41680000  0.14510000  0.74130000  1.0
  N  N137  1  0.42650000  0.26060000  0.63640000  1.0
  N  N138  1  0.21430000  0.16810000  0.91810000  1.0
  N  N139  1  0.08670000  0.31380000  0.93180000  1.0
  N  N140  1  0.80320000  0.35490000  0.75870000  1.0
  N  N141  1  0.82350000  0.23940000  0.86360000  1.0
  N  N142  1  0.80050000  0.33190000  0.58190000  1.0
  N  N143  1  0.83230000  0.18620000  0.56820000  1.0
  O  O144  1  0.60930000  0.75950000  0.99330000  1.0
  O  O145  1  0.60500000  0.87300000  0.04580000  1.0
  O  O146  1  0.28261000  0.02889000  0.29289000  1.0
  O  O147  1  0.43600000  0.01760000  0.17940000  1.0
  O  O148  1  0.72960000  0.54280000  0.38120000  1.0
  O  O149  1  0.87040000  0.50540000  0.24440000  1.0
  O  O150  1  0.78001000  0.56773000  0.00165000  1.0
  O  O151  1  0.89845000  0.51447000  0.05523000  1.0
  O  O152  1  0.86210000  0.74050000  0.50670000  1.0
  O  O153  1  0.02380000  0.62700000  0.45420000  1.0
  O  O154  1  0.10439000  0.47111000  0.20711000  1.0
  O  O155  1  0.13300000  0.48240000  0.32060000  1.0
  O  O156  1  0.15360000  0.95720000  0.11880000  1.0
  O  O157  1  0.12020000  0.99460000  0.25560000  1.0
  O  O158  1  0.84939000  0.93227000  0.49835000  1.0
  O  O159  1  0.96815000  0.98553000  0.44477000  1.0
  O  O160  1  0.60260000  0.00670000  0.25950000  1.0
  O  O161  1  0.65080000  0.95420000  0.37300000  1.0
  O  O162  1  0.57550000  0.70711000  0.52889000  1.0
  O  O163  1  0.61540000  0.82060000  0.51760000  1.0
  O  O164  1  0.11080000  0.61880000  0.04280000  1.0
  O  O165  1  0.11480000  0.75560000  0.00540000  1.0
  O  O166  1  0.78166000  0.99835000  0.06773000  1.0
  O  O167  1  0.95368000  0.94477000  0.01447000  1.0
  O  O168  1  0.36880000  0.49330000  0.24050000  1.0
  O  O169  1  0.47800000  0.54580000  0.12700000  1.0
  O  O170  1  0.31150000  0.79289000  0.97111000  1.0
  O  O171  1  0.45360000  0.67940000  0.98240000  1.0
  O  O172  1  0.27240000  0.88120000  0.45720000  1.0
  O  O173  1  0.37580000  0.74440000  0.49460000  1.0
  O  O174  1  0.34774000  0.50165000  0.43227000  1.0
  O  O175  1  0.41292000  0.55523000  0.48553000  1.0
  O  O176  1  0.39070000  0.24050000  0.00670000  1.0
  O  O177  1  0.39500000  0.12700000  0.95420000  1.0
  O  O178  1  0.71739000  0.97111000  0.70711000  1.0
  O  O179  1  0.56400000  0.98240000  0.82060000  1.0
  O  O180  1  0.27040000  0.45720000  0.61880000  1.0
  O  O181  1  0.12960000  0.49460000  0.75560000  1.0
  O  O182  1  0.21999000  0.43227000  0.99835000  1.0
  O  O183  1  0.10155000  0.48553000  0.94477000  1.0
  O  O184  1  0.13790000  0.25950000  0.49330000  1.0
  O  O185  1  0.97620000  0.37300000  0.54580000  1.0
  O  O186  1  0.89561000  0.52889000  0.79289000  1.0
  O  O187  1  0.86700000  0.51760000  0.67940000  1.0
  O  O188  1  0.84640000  0.04280000  0.88120000  1.0
  O  O189  1  0.87980000  0.00540000  0.74440000  1.0
  O  O190  1  0.15061000  0.06773000  0.50165000  1.0
  O  O191  1  0.03185000  0.01447000  0.55523000  1.0
  O  O192  1  0.39740000  0.99330000  0.74050000  1.0
  O  O193  1  0.34920000  0.04580000  0.62700000  1.0
  O  O194  1  0.42450000  0.29289000  0.47111000  1.0
  O  O195  1  0.38460000  0.17940000  0.48240000  1.0
  O  O196  1  0.88920000  0.38120000  0.95720000  1.0
  O  O197  1  0.88520000  0.24440000  0.99460000  1.0
  O  O198  1  0.21834000  0.00165000  0.93227000  1.0
  O  O199  1  0.04632000  0.05523000  0.98553000  1.0
  O  O200  1  0.63120000  0.50670000  0.75950000  1.0
  O  O201  1  0.52200000  0.45420000  0.87300000  1.0
  O  O202  1  0.68850000  0.20711000  0.02889000  1.0
  O  O203  1  0.54640000  0.32060000  0.01760000  1.0
  O  O204  1  0.72760000  0.11880000  0.54280000  1.0
  O  O205  1  0.62420000  0.25560000  0.50540000  1.0
  O  O206  1  0.65226000  0.49835000  0.56773000  1.0
  O  O207  1  0.58708000  0.44477000  0.51447000  1.0
