# generated using pymatgen
data_MnH3(CO2)3
_symmetry_space_group_name_H-M   'P 1'
_cell_length_a   12.30340000
_cell_length_b   12.44080000
_cell_length_c   12.81560000
_cell_angle_alpha   90.00000000
_cell_angle_beta   91.19000000
_cell_angle_gamma   90.00000000
_symmetry_Int_Tables_number   1
_chemical_formula_structural   MnH3(CO2)3
_chemical_formula_sum   'Mn8 H24 C24 O48'
_cell_volume   1961.18570305
_cell_formula_units_Z   8
loop_
 _symmetry_equiv_pos_site_id
 _symmetry_equiv_pos_as_xyz
  1  'x, y, z'
loop_
 _atom_site_type_symbol
 _atom_site_label
 _atom_site_symmetry_multiplicity
 _atom_site_fract_x
 _atom_site_fract_y
 _atom_site_fract_z
 _atom_site_occupancy
  Mn  Mn0  1  0.74030000  0.25281000  0.00780000  1.0
  Mn  Mn1  1  0.75929000  0.75241000  0.99347000  1.0
  Mn  Mn2  1  0.75970000  0.75281000  0.49220000  1.0
  Mn  Mn3  1  0.74071000  0.25241000  0.50653000  1.0
  Mn  Mn4  1  0.25970000  0.74719000  0.99220000  1.0
  Mn  Mn5  1  0.24071000  0.24759000  0.00653000  1.0
  Mn  Mn6  1  0.24030000  0.24719000  0.50780000  1.0
  Mn  Mn7  1  0.25929000  0.74759000  0.49347000  1.0
  H  H8  1  0.79000000  0.32600000  0.75900000  1.0
  H  H9  1  0.79700000  0.83300000  0.24400000  1.0
  H  H10  1  0.00500000  0.77100000  0.93800000  1.0
  H  H11  1  0.49600000  0.30500000  0.07700000  1.0
  H  H12  1  0.77900000  0.50400000  0.07300000  1.0
  H  H13  1  0.71000000  0.99600000  0.94100000  1.0
  H  H14  1  0.71000000  0.82600000  0.74100000  1.0
  H  H15  1  0.70300000  0.33300000  0.25600000  1.0
  H  H16  1  0.49500000  0.27100000  0.56200000  1.0
  H  H17  1  0.00400000  0.80500000  0.42300000  1.0
  H  H18  1  0.72100000  0.00400000  0.42700000  1.0
  H  H19  1  0.79000000  0.49600000  0.55900000  1.0
  H  H20  1  0.21000000  0.67400000  0.24100000  1.0
  H  H21  1  0.20300000  0.16700000  0.75600000  1.0
  H  H22  1  0.99500000  0.22900000  0.06200000  1.0
  H  H23  1  0.50400000  0.69500000  0.92300000  1.0
  H  H24  1  0.22100000  0.49600000  0.92700000  1.0
  H  H25  1  0.29000000  0.00400000  0.05900000  1.0
  H  H26  1  0.29000000  0.17400000  0.25900000  1.0
  H  H27  1  0.29700000  0.66700000  0.74400000  1.0
  H  H28  1  0.50500000  0.72900000  0.43800000  1.0
  H  H29  1  0.99600000  0.19500000  0.57700000  1.0
  H  H30  1  0.27900000  0.99600000  0.57300000  1.0
  H  H31  1  0.21000000  0.50400000  0.44100000  1.0
  C  C32  1  0.71920000  0.50276000  0.02290000  1.0
  C  C33  1  0.77480000  0.00123000  0.98690000  1.0
  C  C34  1  0.73690000  0.27110000  0.75530000  1.0
  C  C35  1  0.75280000  0.78080000  0.24150000  1.0
  C  C36  1  0.01050000  0.71740000  0.99650000  1.0
  C  C37  1  0.49250000  0.22950000  0.04320000  1.0
  C  C38  1  0.78080000  0.00276000  0.47710000  1.0
  C  C39  1  0.72520000  0.50123000  0.51310000  1.0
  C  C40  1  0.76310000  0.77110000  0.74470000  1.0
  C  C41  1  0.74720000  0.28080000  0.25850000  1.0
  C  C42  1  0.48950000  0.21740000  0.50350000  1.0
  C  C43  1  0.00750000  0.72950000  0.45680000  1.0
  C  C44  1  0.28080000  0.49724000  0.97710000  1.0
  C  C45  1  0.22520000  0.99877000  0.01310000  1.0
  C  C46  1  0.26310000  0.72890000  0.24470000  1.0
  C  C47  1  0.24720000  0.21920000  0.75850000  1.0
  C  C48  1  0.98950000  0.28260000  0.00350000  1.0
  C  C49  1  0.50750000  0.77050000  0.95680000  1.0
  C  C50  1  0.21920000  0.99724000  0.52290000  1.0
  C  C51  1  0.27480000  0.49877000  0.48690000  1.0
  C  C52  1  0.23690000  0.22890000  0.25530000  1.0
  C  C53  1  0.25280000  0.71920000  0.74150000  1.0
  C  C54  1  0.51050000  0.78260000  0.49650000  1.0
  C  C55  1  0.99250000  0.27050000  0.54320000  1.0
  O  O56  1  0.57821000  0.19195000  0.01782000  1.0
  O  O57  1  0.92170000  0.68697000  0.02970000  1.0
  O  O58  1  0.80603000  0.09038000  0.01845000  1.0
  O  O59  1  0.10034000  0.68317000  0.02520000  1.0
  O  O60  1  0.40137000  0.18823000  0.03794000  1.0
  O  O61  1  0.70690000  0.23381000  0.83995000  1.0
  O  O62  1  0.81761000  0.91445000  0.00940000  1.0
  O  O63  1  0.67444000  0.41515000  0.00262000  1.0
  O  O64  1  0.70250000  0.24079000  0.67021000  1.0
  O  O65  1  0.72750000  0.74059000  0.15771000  1.0
  O  O66  1  0.72110000  0.75103000  0.32746000  1.0
  O  O67  1  0.69965000  0.58790000  0.97976000  1.0
  O  O68  1  0.92179000  0.69195000  0.48218000  1.0
  O  O69  1  0.57830000  0.18697000  0.47030000  1.0
  O  O70  1  0.69397000  0.59038000  0.48155000  1.0
  O  O71  1  0.39966000  0.18317000  0.47480000  1.0
  O  O72  1  0.09863000  0.68823000  0.46206000  1.0
  O  O73  1  0.79310000  0.73381000  0.66005000  1.0
  O  O74  1  0.68239000  0.41445000  0.49060000  1.0
  O  O75  1  0.82556000  0.91515000  0.49738000  1.0
  O  O76  1  0.79750000  0.74079000  0.82979000  1.0
  O  O77  1  0.77250000  0.24059000  0.34229000  1.0
  O  O78  1  0.77890000  0.25103000  0.17254000  1.0
  O  O79  1  0.80035000  0.08790000  0.52024000  1.0
  O  O80  1  0.42179000  0.80805000  0.98218000  1.0
  O  O81  1  0.07830000  0.31303000  0.97030000  1.0
  O  O82  1  0.19397000  0.90962000  0.98155000  1.0
  O  O83  1  0.89966000  0.31683000  0.97480000  1.0
  O  O84  1  0.59863000  0.81177000  0.96206000  1.0
  O  O85  1  0.29310000  0.76619000  0.16005000  1.0
  O  O86  1  0.18239000  0.08555000  0.99060000  1.0
  O  O87  1  0.32556000  0.58485000  0.99738000  1.0
  O  O88  1  0.29750000  0.75921000  0.32979000  1.0
  O  O89  1  0.27250000  0.25941000  0.84229000  1.0
  O  O90  1  0.27890000  0.24897000  0.67254000  1.0
  O  O91  1  0.30035000  0.41210000  0.02024000  1.0
  O  O92  1  0.07821000  0.30805000  0.51782000  1.0
  O  O93  1  0.42170000  0.81303000  0.52970000  1.0
  O  O94  1  0.30603000  0.40962000  0.51845000  1.0
  O  O95  1  0.60034000  0.81683000  0.52520000  1.0
  O  O96  1  0.90137000  0.31177000  0.53794000  1.0
  O  O97  1  0.20690000  0.26619000  0.33995000  1.0
  O  O98  1  0.31761000  0.58555000  0.50940000  1.0
  O  O99  1  0.17444000  0.08485000  0.50262000  1.0
  O  O100  1  0.20250000  0.25921000  0.17021000  1.0
  O  O101  1  0.22750000  0.75941000  0.65771000  1.0
  O  O102  1  0.22110000  0.74897000  0.82746000  1.0
  O  O103  1  0.19965000  0.91210000  0.47976000  1.0
