# generated using pymatgen
data_Ag6H5C12(O2F)3
_symmetry_space_group_name_H-M   'P 1'
_cell_length_a   6.90410000
_cell_length_b   18.74250000
_cell_length_c   22.41910000
_cell_angle_alpha   90.00000000
_cell_angle_beta   97.68700000
_cell_angle_gamma   90.00000000
_symmetry_Int_Tables_number   1
_chemical_formula_structural   Ag6H5C12(O2F)3
_chemical_formula_sum   'Ag24 H20 C48 O24 F12'
_cell_volume   2874.96373081
_cell_formula_units_Z   4
loop_
 _symmetry_equiv_pos_site_id
 _symmetry_equiv_pos_as_xyz
  1  'x, y, z'
loop_
 _atom_site_type_symbol
 _atom_site_label
 _atom_site_symmetry_multiplicity
 _atom_site_fract_x
 _atom_site_fract_y
 _atom_site_fract_z
 _atom_site_occupancy
  Ag  Ag0  1  0.85167000  0.86231000  0.58521000  1.0
  Ag  Ag1  1  0.57372000  0.94743000  0.64658000  1.0
  Ag  Ag2  1  0.47708000  0.92574000  0.50706000  1.0
  Ag  Ag3  1  0.13064000  0.97516000  0.55742000  1.0
  Ag  Ag4  1  0.91701000  0.13292000  0.54856000  1.0
  Ag  Ag5  1  0.91180000  0.03499000  0.67111000  1.0
  Ag  Ag6  1  0.64833000  0.36231000  0.91479000  1.0
  Ag  Ag7  1  0.92628000  0.44743000  0.85342000  1.0
  Ag  Ag8  1  0.02292000  0.42574000  0.99294000  1.0
  Ag  Ag9  1  0.36936000  0.47516000  0.94258000  1.0
  Ag  Ag10  1  0.58299000  0.63292000  0.95144000  1.0
  Ag  Ag11  1  0.58820000  0.53499000  0.82889000  1.0
  Ag  Ag12  1  0.14833000  0.13769000  0.41479000  1.0
  Ag  Ag13  1  0.42628000  0.05257000  0.35342000  1.0
  Ag  Ag14  1  0.52292000  0.07426000  0.49294000  1.0
  Ag  Ag15  1  0.86936000  0.02484000  0.44258000  1.0
  Ag  Ag16  1  0.08299000  0.86708000  0.45144000  1.0
  Ag  Ag17  1  0.08820000  0.96501000  0.32889000  1.0
  Ag  Ag18  1  0.35167000  0.63769000  0.08521000  1.0
  Ag  Ag19  1  0.07372000  0.55257000  0.14658000  1.0
  Ag  Ag20  1  0.97708000  0.57426000  0.00706000  1.0
  Ag  Ag21  1  0.63064000  0.52484000  0.05742000  1.0
  Ag  Ag22  1  0.41701000  0.36708000  0.04856000  1.0
  Ag  Ag23  1  0.41180000  0.46501000  0.17111000  1.0
  H  H24  1  0.34700000  0.68010000  0.56600000  1.0
  H  H25  1  0.36970000  0.58010000  0.62790000  1.0
  H  H26  1  0.40620000  0.59310000  0.73100000  1.0
  H  H27  1  0.38050000  0.80610000  0.71230000  1.0
  H  H28  1  0.31060000  0.78810000  0.80700000  1.0
  H  H29  1  0.15300000  0.18010000  0.93400000  1.0
  H  H30  1  0.13030000  0.08010000  0.87210000  1.0
  H  H31  1  0.09380000  0.09310000  0.76900000  1.0
  H  H32  1  0.11950000  0.30610000  0.78770000  1.0
  H  H33  1  0.18940000  0.28810000  0.69300000  1.0
  H  H34  1  0.65300000  0.31990000  0.43400000  1.0
  H  H35  1  0.63030000  0.41990000  0.37210000  1.0
  H  H36  1  0.59380000  0.40690000  0.26900000  1.0
  H  H37  1  0.61950000  0.19390000  0.28770000  1.0
  H  H38  1  0.68940000  0.21190000  0.19300000  1.0
  H  H39  1  0.84700000  0.81990000  0.06600000  1.0
  H  H40  1  0.86970000  0.91990000  0.12790000  1.0
  H  H41  1  0.90620000  0.90690000  0.23100000  1.0
  H  H42  1  0.88050000  0.69390000  0.21230000  1.0
  H  H43  1  0.81060000  0.71190000  0.30700000  1.0
  C  C44  1  0.75200000  0.97100000  0.57540000  1.0
  C  C45  1  0.79980000  0.02930000  0.55560000  1.0
  C  C46  1  0.91830000  0.72750000  0.50000000  1.0
  C  C47  1  0.86380000  0.64810000  0.49190000  1.0
  C  C48  1  0.34120000  0.81830000  0.59350000  1.0
  C  C49  1  0.36100000  0.75330000  0.63350000  1.0
  C  C50  1  0.35880000  0.68530000  0.60760000  1.0
  C  C51  1  0.37450000  0.62550000  0.64480000  1.0
  C  C52  1  0.39720000  0.63330000  0.70660000  1.0
  C  C53  1  0.40680000  0.70140000  0.73280000  1.0
  C  C54  1  0.38250000  0.76080000  0.69550000  1.0
  C  C55  1  0.44100000  0.70710000  0.80010000  1.0
  C  C56  1  0.74800000  0.47100000  0.92460000  1.0
  C  C57  1  0.70020000  0.52930000  0.94440000  1.0
  C  C58  1  0.58170000  0.22750000  0.00000000  1.0
  C  C59  1  0.63620000  0.14810000  0.00810000  1.0
  C  C60  1  0.15880000  0.31830000  0.90650000  1.0
  C  C61  1  0.13900000  0.25330000  0.86650000  1.0
  C  C62  1  0.14120000  0.18530000  0.89240000  1.0
  C  C63  1  0.12550000  0.12550000  0.85520000  1.0
  C  C64  1  0.10280000  0.13330000  0.79340000  1.0
  C  C65  1  0.09320000  0.20140000  0.76720000  1.0
  C  C66  1  0.11750000  0.26080000  0.80450000  1.0
  C  C67  1  0.05900000  0.20710000  0.69990000  1.0
  C  C68  1  0.24800000  0.02900000  0.42460000  1.0
  C  C69  1  0.20020000  0.97070000  0.44440000  1.0
  C  C70  1  0.08170000  0.27250000  0.50000000  1.0
  C  C71  1  0.13620000  0.35190000  0.50810000  1.0
  C  C72  1  0.65880000  0.18170000  0.40650000  1.0
  C  C73  1  0.63900000  0.24670000  0.36650000  1.0
  C  C74  1  0.64120000  0.31470000  0.39240000  1.0
  C  C75  1  0.62550000  0.37450000  0.35520000  1.0
  C  C76  1  0.60280000  0.36670000  0.29340000  1.0
  C  C77  1  0.59320000  0.29860000  0.26720000  1.0
  C  C78  1  0.61750000  0.23920000  0.30450000  1.0
  C  C79  1  0.55900000  0.29290000  0.19990000  1.0
  C  C80  1  0.25200000  0.52900000  0.07540000  1.0
  C  C81  1  0.29980000  0.47070000  0.05560000  1.0
  C  C82  1  0.41830000  0.77250000  0.00000000  1.0
  C  C83  1  0.36380000  0.85190000  0.99190000  1.0
  C  C84  1  0.84120000  0.68170000  0.09350000  1.0
  C  C85  1  0.86100000  0.74670000  0.13350000  1.0
  C  C86  1  0.85880000  0.81470000  0.10760000  1.0
  C  C87  1  0.87450000  0.87450000  0.14480000  1.0
  C  C88  1  0.89720000  0.86670000  0.20660000  1.0
  C  C89  1  0.90680000  0.79860000  0.23280000  1.0
  C  C90  1  0.88250000  0.73920000  0.19550000  1.0
  C  C91  1  0.94100000  0.79290000  0.30010000  1.0
  O  O92  1  0.89490000  0.75340000  0.54890000  1.0
  O  O93  1  0.98340000  0.75600000  0.45590000  1.0
  O  O94  1  0.27090000  0.87450000  0.61450000  1.0
  O  O95  1  0.39850000  0.81380000  0.54300000  1.0
  O  O96  1  0.41180000  0.77050000  0.82420000  1.0
  O  O97  1  0.50090000  0.65620000  0.83240000  1.0
  O  O98  1  0.60510000  0.25340000  0.95110000  1.0
  O  O99  1  0.51660000  0.25600000  0.04410000  1.0
  O  O100  1  0.22910000  0.37450000  0.88550000  1.0
  O  O101  1  0.10150000  0.31380000  0.95700000  1.0
  O  O102  1  0.08820000  0.27050000  0.67580000  1.0
  O  O103  1  0.99910000  0.15620000  0.66760000  1.0
  O  O104  1  0.10510000  0.24660000  0.45110000  1.0
  O  O105  1  0.01660000  0.24400000  0.54410000  1.0
  O  O106  1  0.72910000  0.12550000  0.38550000  1.0
  O  O107  1  0.60150000  0.18620000  0.45700000  1.0
  O  O108  1  0.58820000  0.22950000  0.17580000  1.0
  O  O109  1  0.49910000  0.34380000  0.16760000  1.0
  O  O110  1  0.39490000  0.74660000  0.04890000  1.0
  O  O111  1  0.48340000  0.74400000  0.95590000  1.0
  O  O112  1  0.77090000  0.62550000  0.11450000  1.0
  O  O113  1  0.89850000  0.68620000  0.04300000  1.0
  O  O114  1  0.91180000  0.72950000  0.32420000  1.0
  O  O115  1  0.00090000  0.84380000  0.33240000  1.0
  F  F116  1  0.73800000  0.62790000  0.52480000  1.0
  F  F117  1  0.02000000  0.60780000  0.50420000  1.0
  F  F118  1  0.79410000  0.63100000  0.43670000  1.0
  F  F119  1  0.76200000  0.12790000  0.97520000  1.0
  F  F120  1  0.48000000  0.10780000  0.99580000  1.0
  F  F121  1  0.70590000  0.13100000  0.06330000  1.0
  F  F122  1  0.26200000  0.37210000  0.47520000  1.0
  F  F123  1  0.98000000  0.39220000  0.49580000  1.0
  F  F124  1  0.20590000  0.36900000  0.56330000  1.0
  F  F125  1  0.23800000  0.87210000  0.02480000  1.0
  F  F126  1  0.52000000  0.89220000  0.00420000  1.0
  F  F127  1  0.29410000  0.86900000  0.93670000  1.0
