# generated using pymatgen
data_EuH3(CO2)3
_symmetry_space_group_name_H-M   'P 1'
_cell_length_a   11.41640000
_cell_length_b   7.19850000
_cell_length_c   6.64050000
_cell_angle_alpha   90.00000000
_cell_angle_beta   109.82900000
_cell_angle_gamma   90.00000000
_symmetry_Int_Tables_number   1
_chemical_formula_structural   EuH3(CO2)3
_chemical_formula_sum   'Eu2 H6 C6 O12'
_cell_volume   513.36630155
_cell_formula_units_Z   2
loop_
 _symmetry_equiv_pos_site_id
 _symmetry_equiv_pos_as_xyz
  1  'x, y, z'
loop_
 _atom_site_type_symbol
 _atom_site_label
 _atom_site_symmetry_multiplicity
 _atom_site_fract_x
 _atom_site_fract_y
 _atom_site_fract_z
 _atom_site_occupancy
  Eu  Eu0  1  0.00000000  0.67660000  0.00000000  1.0
  Eu  Eu1  1  0.50000000  0.17660000  0.00000000  1.0
  H  H2  1  0.80400000  0.33750000  0.10260000  1.0
  H  H3  1  0.30400000  0.83750000  0.10260000  1.0
  H  H4  1  0.19600000  0.33750000  0.89740000  1.0
  H  H5  1  0.69600000  0.83750000  0.89740000  1.0
  H  H6  1  0.00000000  0.73750000  0.50000000  1.0
  H  H7  1  0.50000000  0.23750000  0.50000000  1.0
  C  C8  1  0.76350000  0.38090000  0.96440000  1.0
  C  C9  1  0.26350000  0.88090000  0.96440000  1.0
  C  C10  1  0.23650000  0.38090000  0.03560000  1.0
  C  C11  1  0.73650000  0.88090000  0.03560000  1.0
  C  C12  1  0.00000000  0.60830000  0.50000000  1.0
  C  C13  1  0.50000000  0.10830000  0.50000000  1.0
  O  O14  1  0.99140000  0.52950000  0.66170000  1.0
  O  O15  1  0.82640000  0.47630000  0.88200000  1.0
  O  O16  1  0.65430000  0.33850000  0.88240000  1.0
  O  O17  1  0.49140000  0.02950000  0.66170000  1.0
  O  O18  1  0.32640000  0.97630000  0.88200000  1.0
  O  O19  1  0.15430000  0.83850000  0.88240000  1.0
  O  O20  1  0.00860000  0.52950000  0.33830000  1.0
  O  O21  1  0.17360000  0.47630000  0.11800000  1.0
  O  O22  1  0.34570000  0.33850000  0.11760000  1.0
  O  O23  1  0.50860000  0.02950000  0.33830000  1.0
  O  O24  1  0.67360000  0.97630000  0.11800000  1.0
  O  O25  1  0.84570000  0.83850000  0.11760000  1.0
