# generated using pymatgen
data_SmH3(CO2)3
_symmetry_space_group_name_H-M   'P 1'
_cell_length_a   11.43000000
_cell_length_b   7.22000000
_cell_length_c   6.65500000
_cell_angle_alpha   90.00000000
_cell_angle_beta   109.91200000
_cell_angle_gamma   90.00000000
_symmetry_Int_Tables_number   1
_chemical_formula_structural   SmH3(CO2)3
_chemical_formula_sum   'Sm2 H6 C6 O12'
_cell_volume   516.36821663
_cell_formula_units_Z   2
loop_
 _symmetry_equiv_pos_site_id
 _symmetry_equiv_pos_as_xyz
  1  'x, y, z'
loop_
 _atom_site_type_symbol
 _atom_site_label
 _atom_site_symmetry_multiplicity
 _atom_site_fract_x
 _atom_site_fract_y
 _atom_site_fract_z
 _atom_site_occupancy
  Sm  Sm0  1  0.00000000  0.41855000  0.00000000  1.0
  Sm  Sm1  1  0.50000000  0.91855000  0.00000000  1.0
  H  H2  1  0.80250000  0.07980000  0.10010000  1.0
  H  H3  1  0.30250000  0.57980000  0.10010000  1.0
  H  H4  1  0.19750000  0.07980000  0.89990000  1.0
  H  H5  1  0.69750000  0.57980000  0.89990000  1.0
  H  H6  1  0.00000000  0.47460000  0.50000000  1.0
  H  H7  1  0.50000000  0.97460000  0.50000000  1.0
  C  C8  1  0.76250000  0.12300000  0.96200000  1.0
  C  C9  1  0.26250000  0.62300000  0.96200000  1.0
  C  C10  1  0.23750000  0.12300000  0.03800000  1.0
  C  C11  1  0.73750000  0.62300000  0.03800000  1.0
  C  C12  1  0.00000000  0.34600000  0.50000000  1.0
  C  C13  1  0.50000000  0.84600000  0.50000000  1.0
  O  O14  1  0.99160000  0.27170000  0.66270000  1.0
  O  O15  1  0.82740000  0.21550000  0.88400000  1.0
  O  O16  1  0.65390000  0.08000000  0.88260000  1.0
  O  O17  1  0.49160000  0.77170000  0.66270000  1.0
  O  O18  1  0.32740000  0.71550000  0.88400000  1.0
  O  O19  1  0.15390000  0.58000000  0.88260000  1.0
  O  O20  1  0.00840000  0.27170000  0.33730000  1.0
  O  O21  1  0.17260000  0.21550000  0.11600000  1.0
  O  O22  1  0.34610000  0.08000000  0.11740000  1.0
  O  O23  1  0.50840000  0.77170000  0.33730000  1.0
  O  O24  1  0.67260000  0.71550000  0.11600000  1.0
  O  O25  1  0.84610000  0.58000000  0.11740000  1.0
