# generated using pymatgen
data_SmH4(CO2)4
_symmetry_space_group_name_H-M   'P 1'
_cell_length_a   6.76680000
_cell_length_b   18.71890000
_cell_length_c   8.57170000
_cell_angle_alpha   90.00000000
_cell_angle_beta   90.00000000
_cell_angle_gamma   90.00000000
_symmetry_Int_Tables_number   1
_chemical_formula_structural   SmH4(CO2)4
_chemical_formula_sum   'Sm4 H16 C16 O32'
_cell_volume   1085.75197409
_cell_formula_units_Z   4
loop_
 _symmetry_equiv_pos_site_id
 _symmetry_equiv_pos_as_xyz
  1  'x, y, z'
loop_
 _atom_site_type_symbol
 _atom_site_label
 _atom_site_symmetry_multiplicity
 _atom_site_fract_x
 _atom_site_fract_y
 _atom_site_fract_z
 _atom_site_occupancy
  Sm  Sm0  1  0.00000000  0.64250000  0.75000000  1.0
  Sm  Sm1  1  0.50000000  0.14250000  0.75000000  1.0
  Sm  Sm2  1  0.00000000  0.35750000  0.25000000  1.0
  Sm  Sm3  1  0.50000000  0.85750000  0.25000000  1.0
  H  H4  1  0.78940000  0.78050000  0.96020000  1.0
  H  H5  1  0.28940000  0.28050000  0.96020000  1.0
  H  H6  1  0.21060000  0.21950000  0.46020000  1.0
  H  H7  1  0.71060000  0.71950000  0.46020000  1.0
  H  H8  1  0.21060000  0.78050000  0.53980000  1.0
  H  H9  1  0.71060000  0.28050000  0.53980000  1.0
  H  H10  1  0.78940000  0.21950000  0.03980000  1.0
  H  H11  1  0.28940000  0.71950000  0.03980000  1.0
  H  H12  1  0.50000000  0.67340000  0.75000000  1.0
  H  H13  1  0.00000000  0.17340000  0.75000000  1.0
  H  H14  1  0.50000000  0.32660000  0.25000000  1.0
  H  H15  1  0.00000000  0.82660000  0.25000000  1.0
  H  H16  1  0.20980000  0.50000000  0.00000000  1.0
  H  H17  1  0.70980000  0.00000000  0.00000000  1.0
  H  H18  1  0.79020000  0.50000000  0.50000000  1.0
  H  H19  1  0.29020000  0.00000000  0.50000000  1.0
  C  C20  1  0.76660000  0.74251000  0.02770000  1.0
  C  C21  1  0.26660000  0.24251000  0.02770000  1.0
  C  C22  1  0.23340000  0.25749000  0.52770000  1.0
  C  C23  1  0.73340000  0.75749000  0.52770000  1.0
  C  C24  1  0.23340000  0.74251000  0.47230000  1.0
  C  C25  1  0.73340000  0.24251000  0.47230000  1.0
  C  C26  1  0.76660000  0.25749000  0.97230000  1.0
  C  C27  1  0.26660000  0.75749000  0.97230000  1.0
  C  C28  1  0.50000000  0.62371000  0.75000000  1.0
  C  C29  1  0.00000000  0.12371000  0.75000000  1.0
  C  C30  1  0.50000000  0.37629000  0.25000000  1.0
  C  C31  1  0.00000000  0.87629000  0.25000000  1.0
  C  C32  1  0.07230000  0.50000000  0.00000000  1.0
  C  C33  1  0.57230000  0.00000000  0.00000000  1.0
  C  C34  1  0.92770000  0.50000000  0.50000000  1.0
  C  C35  1  0.42770000  0.00000000  0.50000000  1.0
  O  O36  1  0.98430000  0.54905000  0.93270000  1.0
  O  O37  1  0.33730000  0.59341000  0.77040000  1.0
  O  O38  1  0.82290000  0.68295000  0.98440000  1.0
  O  O39  1  0.68240000  0.75652000  0.15280000  1.0
  O  O40  1  0.48430000  0.04905000  0.93270000  1.0
  O  O41  1  0.83730000  0.09341000  0.77040000  1.0
  O  O42  1  0.32290000  0.18295000  0.98440000  1.0
  O  O43  1  0.18240000  0.25652000  0.15280000  1.0
  O  O44  1  0.01570000  0.45095000  0.43270000  1.0
  O  O45  1  0.66270000  0.40659000  0.27040000  1.0
  O  O46  1  0.17710000  0.31705000  0.48440000  1.0
  O  O47  1  0.31760000  0.24348000  0.65280000  1.0
  O  O48  1  0.51570000  0.95095000  0.43270000  1.0
  O  O49  1  0.16270000  0.90659000  0.27040000  1.0
  O  O50  1  0.67710000  0.81705000  0.48440000  1.0
  O  O51  1  0.81760000  0.74348000  0.65280000  1.0
  O  O52  1  0.01570000  0.54905000  0.56730000  1.0
  O  O53  1  0.66270000  0.59341000  0.72960000  1.0
  O  O54  1  0.17710000  0.68295000  0.51560000  1.0
  O  O55  1  0.31760000  0.75652000  0.34720000  1.0
  O  O56  1  0.51570000  0.04905000  0.56730000  1.0
  O  O57  1  0.16270000  0.09341000  0.72960000  1.0
  O  O58  1  0.67710000  0.18295000  0.51560000  1.0
  O  O59  1  0.81760000  0.25652000  0.34720000  1.0
  O  O60  1  0.98430000  0.45095000  0.06730000  1.0
  O  O61  1  0.33730000  0.40659000  0.22960000  1.0
  O  O62  1  0.82290000  0.31705000  0.01560000  1.0
  O  O63  1  0.68240000  0.24348000  0.84720000  1.0
  O  O64  1  0.48430000  0.95095000  0.06730000  1.0
  O  O65  1  0.83730000  0.90659000  0.22960000  1.0
  O  O66  1  0.32290000  0.81705000  0.01560000  1.0
  O  O67  1  0.18240000  0.74348000  0.84720000  1.0
