# generated using pymatgen
data_LuH4(CO2)4
_symmetry_space_group_name_H-M   'P 1'
_cell_length_a   6.61740000
_cell_length_b   18.20000000
_cell_length_c   8.37770000
_cell_angle_alpha   90.00000000
_cell_angle_beta   90.00000000
_cell_angle_gamma   90.00000000
_symmetry_Int_Tables_number   1
_chemical_formula_structural   LuH4(CO2)4
_chemical_formula_sum   'Lu4 H16 C16 O32'
_cell_volume   1008.98237404
_cell_formula_units_Z   4
loop_
 _symmetry_equiv_pos_site_id
 _symmetry_equiv_pos_as_xyz
  1  'x, y, z'
loop_
 _atom_site_type_symbol
 _atom_site_label
 _atom_site_symmetry_multiplicity
 _atom_site_fract_x
 _atom_site_fract_y
 _atom_site_fract_z
 _atom_site_occupancy
  Lu  Lu0  1  0.00000000  0.14278000  0.25000000  1.0
  Lu  Lu1  1  0.50000000  0.64278000  0.25000000  1.0
  Lu  Lu2  1  0.00000000  0.85722000  0.75000000  1.0
  Lu  Lu3  1  0.50000000  0.35722000  0.75000000  1.0
  H  H4  1  0.21950000  0.28270000  0.04860000  1.0
  H  H5  1  0.71950000  0.78270000  0.04860000  1.0
  H  H6  1  0.78050000  0.71730000  0.54860000  1.0
  H  H7  1  0.28050000  0.21730000  0.54860000  1.0
  H  H8  1  0.78050000  0.28270000  0.45140000  1.0
  H  H9  1  0.28050000  0.78270000  0.45140000  1.0
  H  H10  1  0.21950000  0.71730000  0.95140000  1.0
  H  H11  1  0.71950000  0.21730000  0.95140000  1.0
  H  H12  1  0.50000000  0.17710000  0.25000000  1.0
  H  H13  1  0.00000000  0.67710000  0.25000000  1.0
  H  H14  1  0.50000000  0.82290000  0.75000000  1.0
  H  H15  1  0.00000000  0.32290000  0.75000000  1.0
  H  H16  1  0.21700000  0.00000000  0.50000000  1.0
  H  H17  1  0.71700000  0.50000000  0.50000000  1.0
  H  H18  1  0.78300000  0.00000000  0.00000000  1.0
  H  H19  1  0.28300000  0.50000000  0.00000000  1.0
  C  C20  1  0.23610000  0.24400000  0.97730000  1.0
  C  C21  1  0.73610000  0.74400000  0.97730000  1.0
  C  C22  1  0.76390000  0.75600000  0.47730000  1.0
  C  C23  1  0.26390000  0.25600000  0.47730000  1.0
  C  C24  1  0.76390000  0.24400000  0.52270000  1.0
  C  C25  1  0.26390000  0.74400000  0.52270000  1.0
  C  C26  1  0.23610000  0.75600000  0.02270000  1.0
  C  C27  1  0.73610000  0.25600000  0.02270000  1.0
  C  C28  1  0.50000000  0.12600000  0.25000000  1.0
  C  C29  1  0.00000000  0.62600000  0.25000000  1.0
  C  C30  1  0.50000000  0.87400000  0.75000000  1.0
  C  C31  1  0.00000000  0.37400000  0.75000000  1.0
  C  C32  1  0.07650000  0.00000000  0.50000000  1.0
  C  C33  1  0.57650000  0.50000000  0.50000000  1.0
  C  C34  1  0.92350000  0.00000000  0.00000000  1.0
  C  C35  1  0.42350000  0.50000000  0.00000000  1.0
  O  O36  1  0.33370000  0.09550000  0.27030000  1.0
  O  O37  1  0.98460000  0.05060000  0.42860000  1.0
  O  O38  1  0.17370000  0.18410000  0.02030000  1.0
  O  O39  1  0.32030000  0.25890000  0.84700000  1.0
  O  O40  1  0.83370000  0.59550000  0.27030000  1.0
  O  O41  1  0.48460000  0.55060000  0.42860000  1.0
  O  O42  1  0.67370000  0.68410000  0.02030000  1.0
  O  O43  1  0.82030000  0.75890000  0.84700000  1.0
  O  O44  1  0.66630000  0.90450000  0.77030000  1.0
  O  O45  1  0.01540000  0.94940000  0.92860000  1.0
  O  O46  1  0.82630000  0.81590000  0.52030000  1.0
  O  O47  1  0.67970000  0.74110000  0.34700000  1.0
  O  O48  1  0.16630000  0.40450000  0.77030000  1.0
  O  O49  1  0.51540000  0.44940000  0.92860000  1.0
  O  O50  1  0.32630000  0.31590000  0.52030000  1.0
  O  O51  1  0.17970000  0.24110000  0.34700000  1.0
  O  O52  1  0.66630000  0.09550000  0.22970000  1.0
  O  O53  1  0.01540000  0.05060000  0.07140000  1.0
  O  O54  1  0.82630000  0.18410000  0.47970000  1.0
  O  O55  1  0.67970000  0.25890000  0.65300000  1.0
  O  O56  1  0.16630000  0.59550000  0.22970000  1.0
  O  O57  1  0.51540000  0.55060000  0.07140000  1.0
  O  O58  1  0.32630000  0.68410000  0.47970000  1.0
  O  O59  1  0.17970000  0.75890000  0.65300000  1.0
  O  O60  1  0.33370000  0.90450000  0.72970000  1.0
  O  O61  1  0.98460000  0.94940000  0.57140000  1.0
  O  O62  1  0.17370000  0.81590000  0.97970000  1.0
  O  O63  1  0.32030000  0.74110000  0.15300000  1.0
  O  O64  1  0.83370000  0.40450000  0.72970000  1.0
  O  O65  1  0.48460000  0.44940000  0.57140000  1.0
  O  O66  1  0.67370000  0.31590000  0.97970000  1.0
  O  O67  1  0.82030000  0.24110000  0.15300000  1.0
