# generated using pymatgen
data_Ag3H24(C3N2)4
_symmetry_space_group_name_H-M   'P 1'
_cell_length_a   20.91600000
_cell_length_b   12.29600000
_cell_length_c   11.20400000
_cell_angle_alpha   90.00000000
_cell_angle_beta   90.00000000
_cell_angle_gamma   90.00000000
_symmetry_Int_Tables_number   1
_chemical_formula_structural   Ag3H24(C3N2)4
_chemical_formula_sum   'Ag12 H96 C48 N32'
_cell_volume   2881.47985574
_cell_formula_units_Z   4
loop_
 _symmetry_equiv_pos_site_id
 _symmetry_equiv_pos_as_xyz
  1  'x, y, z'
loop_
 _atom_site_type_symbol
 _atom_site_label
 _atom_site_symmetry_multiplicity
 _atom_site_fract_x
 _atom_site_fract_y
 _atom_site_fract_z
 _atom_site_occupancy
  Ag  Ag0  1  0.22354000  0.63250000  0.75593000  1.0
  Ag  Ag1  1  0.72353000  0.13250000  0.75593000  1.0
  Ag  Ag2  1  0.77646000  0.36750000  0.25593000  1.0
  Ag  Ag3  1  0.27646000  0.86750000  0.25593000  1.0
  Ag  Ag4  1  0.22354000  0.36750000  0.25593000  1.0
  Ag  Ag5  1  0.72353000  0.86750000  0.25593000  1.0
  Ag  Ag6  1  0.77646000  0.63250000  0.75593000  1.0
  Ag  Ag7  1  0.27646000  0.13250000  0.75593000  1.0
  Ag  Ag8  1  0.50000000  0.83056000  0.63046000  1.0
  Ag  Ag9  1  0.00000000  0.33056000  0.63046000  1.0
  Ag  Ag10  1  0.50000000  0.16944000  0.13046000  1.0
  Ag  Ag11  1  0.00000000  0.66944000  0.13046000  1.0
  H  H12  1  0.36750000  0.68620000  0.62950000  1.0
  H  H13  1  0.36640000  0.74950000  0.75110000  1.0
  H  H14  1  0.28080000  0.70960000  0.48710000  1.0
  H  H15  1  0.22330000  0.78710000  0.51690000  1.0
  H  H16  1  0.39680000  0.91090000  0.44560000  1.0
  H  H17  1  0.38590000  0.78460000  0.44350000  1.0
  H  H18  1  0.19090000  0.46840000  0.99230000  1.0
  H  H19  1  0.25930000  0.51500000  0.01880000  1.0
  H  H20  1  0.27590000  0.87100000  0.79720000  1.0
  H  H21  1  0.22090000  0.88600000  0.70320000  1.0
  H  H22  1  0.38360000  0.94420000  0.75430000  1.0
  H  H23  1  0.39530000  0.00800000  0.63500000  1.0
  H  H24  1  0.86750000  0.18620000  0.62950000  1.0
  H  H25  1  0.86640000  0.24950000  0.75110000  1.0
  H  H26  1  0.78080000  0.20960000  0.48710000  1.0
  H  H27  1  0.72330000  0.28710000  0.51690000  1.0
  H  H28  1  0.89680000  0.41090000  0.44560000  1.0
  H  H29  1  0.88590000  0.28460000  0.44350000  1.0
  H  H30  1  0.69090000  0.96840000  0.99230000  1.0
  H  H31  1  0.75930000  0.01500000  0.01880000  1.0
  H  H32  1  0.77590000  0.37100000  0.79720000  1.0
  H  H33  1  0.72090000  0.38600000  0.70320000  1.0
  H  H34  1  0.88360000  0.44420000  0.75430000  1.0
  H  H35  1  0.89530000  0.50800000  0.63500000  1.0
  H  H36  1  0.63250000  0.31380000  0.12950000  1.0
  H  H37  1  0.63360000  0.25050000  0.25110000  1.0
  H  H38  1  0.71920000  0.29040000  0.98710000  1.0
  H  H39  1  0.77670000  0.21290000  0.01690000  1.0
  H  H40  1  0.60320000  0.08910000  0.94560000  1.0
  H  H41  1  0.61410000  0.21540000  0.94350000  1.0
  H  H42  1  0.80910000  0.53160000  0.49230000  1.0
  H  H43  1  0.74070000  0.48500000  0.51880000  1.0
  H  H44  1  0.72410000  0.12900000  0.29720000  1.0
  H  H45  1  0.77910000  0.11400000  0.20320000  1.0
  H  H46  1  0.61640000  0.05580000  0.25430000  1.0
  H  H47  1  0.60470000  0.99200000  0.13500000  1.0
  H  H48  1  0.13250000  0.81380000  0.12950000  1.0
  H  H49  1  0.13360000  0.75050000  0.25110000  1.0
  H  H50  1  0.21920000  0.79040000  0.98710000  1.0
  H  H51  1  0.27670000  0.71290000  0.01690000  1.0
  H  H52  1  0.10320000  0.58910000  0.94560000  1.0
  H  H53  1  0.11410000  0.71540000  0.94350000  1.0
  H  H54  1  0.30910000  0.03160000  0.49230000  1.0
  H  H55  1  0.24070000  0.98500000  0.51880000  1.0
  H  H56  1  0.22410000  0.62900000  0.29720000  1.0
  H  H57  1  0.27910000  0.61400000  0.20320000  1.0
  H  H58  1  0.11640000  0.55580000  0.25430000  1.0
  H  H59  1  0.10470000  0.49200000  0.13500000  1.0
  H  H60  1  0.36750000  0.31380000  0.12950000  1.0
  H  H61  1  0.36640000  0.25050000  0.25110000  1.0
  H  H62  1  0.28080000  0.29040000  0.98710000  1.0
  H  H63  1  0.22330000  0.21290000  0.01690000  1.0
  H  H64  1  0.39680000  0.08910000  0.94560000  1.0
  H  H65  1  0.38590000  0.21540000  0.94350000  1.0
  H  H66  1  0.19090000  0.53160000  0.49230000  1.0
  H  H67  1  0.25930000  0.48500000  0.51880000  1.0
  H  H68  1  0.27590000  0.12900000  0.29720000  1.0
  H  H69  1  0.22090000  0.11400000  0.20320000  1.0
  H  H70  1  0.38360000  0.05580000  0.25430000  1.0
  H  H71  1  0.39530000  0.99200000  0.13500000  1.0
  H  H72  1  0.86750000  0.81380000  0.12950000  1.0
  H  H73  1  0.86640000  0.75050000  0.25110000  1.0
  H  H74  1  0.78080000  0.79040000  0.98710000  1.0
  H  H75  1  0.72330000  0.71290000  0.01690000  1.0
  H  H76  1  0.89680000  0.58910000  0.94560000  1.0
  H  H77  1  0.88590000  0.71540000  0.94350000  1.0
  H  H78  1  0.69090000  0.03160000  0.49230000  1.0
  H  H79  1  0.75930000  0.98500000  0.51880000  1.0
  H  H80  1  0.77590000  0.62900000  0.29720000  1.0
  H  H81  1  0.72090000  0.61400000  0.20320000  1.0
  H  H82  1  0.88360000  0.55580000  0.25430000  1.0
  H  H83  1  0.89530000  0.49200000  0.13500000  1.0
  H  H84  1  0.63250000  0.68620000  0.62950000  1.0
  H  H85  1  0.63360000  0.74950000  0.75110000  1.0
  H  H86  1  0.71920000  0.70960000  0.48710000  1.0
  H  H87  1  0.77670000  0.78710000  0.51690000  1.0
  H  H88  1  0.60320000  0.91090000  0.44560000  1.0
  H  H89  1  0.61410000  0.78460000  0.44350000  1.0
  H  H90  1  0.80910000  0.46840000  0.99230000  1.0
  H  H91  1  0.74070000  0.51500000  0.01880000  1.0
  H  H92  1  0.72410000  0.87100000  0.79720000  1.0
  H  H93  1  0.77910000  0.88600000  0.70320000  1.0
  H  H94  1  0.61640000  0.94420000  0.75430000  1.0
  H  H95  1  0.60470000  0.00800000  0.63500000  1.0
  H  H96  1  0.13250000  0.18620000  0.62950000  1.0
  H  H97  1  0.13360000  0.24950000  0.75110000  1.0
  H  H98  1  0.21920000  0.20960000  0.48710000  1.0
  H  H99  1  0.27670000  0.28710000  0.51690000  1.0
  H  H100  1  0.10320000  0.41090000  0.44560000  1.0
  H  H101  1  0.11410000  0.28460000  0.44350000  1.0
  H  H102  1  0.30910000  0.96840000  0.99230000  1.0
  H  H103  1  0.24070000  0.01500000  0.01880000  1.0
  H  H104  1  0.22410000  0.37100000  0.79720000  1.0
  H  H105  1  0.27910000  0.38600000  0.70320000  1.0
  H  H106  1  0.11640000  0.44420000  0.75430000  1.0
  H  H107  1  0.10470000  0.50800000  0.63500000  1.0
  C  C108  1  0.35540000  0.75420000  0.66720000  1.0
  C  C109  1  0.26900000  0.77710000  0.52620000  1.0
  C  C110  1  0.37370000  0.85160000  0.48300000  1.0
  C  C111  1  0.21390000  0.52830000  0.02870000  1.0
  C  C112  1  0.26650000  0.87460000  0.71250000  1.0
  C  C113  1  0.37230000  0.94760000  0.67050000  1.0
  C  C114  1  0.85540000  0.25420000  0.66720000  1.0
  C  C115  1  0.76900000  0.27710000  0.52620000  1.0
  C  C116  1  0.87370000  0.35160000  0.48300000  1.0
  C  C117  1  0.71390000  0.02830000  0.02870000  1.0
  C  C118  1  0.76650000  0.37460000  0.71250000  1.0
  C  C119  1  0.87230000  0.44760000  0.67050000  1.0
  C  C120  1  0.64460000  0.24580000  0.16720000  1.0
  C  C121  1  0.73100000  0.22290000  0.02620000  1.0
  C  C122  1  0.62630000  0.14840000  0.98300000  1.0
  C  C123  1  0.78610000  0.47170000  0.52870000  1.0
  C  C124  1  0.73350000  0.12540000  0.21250000  1.0
  C  C125  1  0.62770000  0.05240000  0.17050000  1.0
  C  C126  1  0.14460000  0.74580000  0.16720000  1.0
  C  C127  1  0.23100000  0.72290000  0.02620000  1.0
  C  C128  1  0.12630000  0.64840000  0.98300000  1.0
  C  C129  1  0.28610000  0.97170000  0.52870000  1.0
  C  C130  1  0.23350000  0.62540000  0.21250000  1.0
  C  C131  1  0.12770000  0.55240000  0.17050000  1.0
  C  C132  1  0.35540000  0.24580000  0.16720000  1.0
  C  C133  1  0.26900000  0.22290000  0.02620000  1.0
  C  C134  1  0.37370000  0.14840000  0.98300000  1.0
  C  C135  1  0.21390000  0.47170000  0.52870000  1.0
  C  C136  1  0.26650000  0.12540000  0.21250000  1.0
  C  C137  1  0.37230000  0.05240000  0.17050000  1.0
  C  C138  1  0.85540000  0.74580000  0.16720000  1.0
  C  C139  1  0.76900000  0.72290000  0.02620000  1.0
  C  C140  1  0.87370000  0.64840000  0.98300000  1.0
  C  C141  1  0.71390000  0.97170000  0.52870000  1.0
  C  C142  1  0.76650000  0.62540000  0.21250000  1.0
  C  C143  1  0.87230000  0.55240000  0.17050000  1.0
  C  C144  1  0.64460000  0.75420000  0.66720000  1.0
  C  C145  1  0.73100000  0.77710000  0.52620000  1.0
  C  C146  1  0.62630000  0.85160000  0.48300000  1.0
  C  C147  1  0.78610000  0.52830000  0.02870000  1.0
  C  C148  1  0.73350000  0.87460000  0.71250000  1.0
  C  C149  1  0.62770000  0.94760000  0.67050000  1.0
  C  C150  1  0.14460000  0.25420000  0.66720000  1.0
  C  C151  1  0.23100000  0.27710000  0.52620000  1.0
  C  C152  1  0.12630000  0.35160000  0.48300000  1.0
  C  C153  1  0.28610000  0.02830000  0.02870000  1.0
  C  C154  1  0.23350000  0.37460000  0.71250000  1.0
  C  C155  1  0.12770000  0.44760000  0.67050000  1.0
  N  N156  1  0.39153000  0.84540000  0.61130000  1.0
  N  N157  1  0.28490000  0.77000000  0.65490000  1.0
  N  N158  1  0.19660000  0.63050000  0.96800000  1.0
  N  N159  1  0.19840000  0.46680000  0.65870000  1.0
  N  N160  1  0.89153000  0.34540000  0.61130000  1.0
  N  N161  1  0.78490000  0.27000000  0.65490000  1.0
  N  N162  1  0.69660000  0.13050000  0.96800000  1.0
  N  N163  1  0.69840000  0.96680000  0.65870000  1.0
  N  N164  1  0.60847000  0.15460000  0.11130000  1.0
  N  N165  1  0.71510000  0.23000000  0.15490000  1.0
  N  N166  1  0.80340000  0.36950000  0.46800000  1.0
  N  N167  1  0.80160000  0.53320000  0.15870000  1.0
  N  N168  1  0.10847000  0.65460000  0.11130000  1.0
  N  N169  1  0.21510000  0.73000000  0.15490000  1.0
  N  N170  1  0.30340000  0.86950000  0.46800000  1.0
  N  N171  1  0.30160000  0.03320000  0.15870000  1.0
  N  N172  1  0.39153000  0.15460000  0.11130000  1.0
  N  N173  1  0.28490000  0.23000000  0.15490000  1.0
  N  N174  1  0.19660000  0.36950000  0.46800000  1.0
  N  N175  1  0.19840000  0.53320000  0.15870000  1.0
  N  N176  1  0.89153000  0.65460000  0.11130000  1.0
  N  N177  1  0.78490000  0.73000000  0.15490000  1.0
  N  N178  1  0.69660000  0.86950000  0.46800000  1.0
  N  N179  1  0.69840000  0.03320000  0.15870000  1.0
  N  N180  1  0.60847000  0.84540000  0.61130000  1.0
  N  N181  1  0.71510000  0.77000000  0.65490000  1.0
  N  N182  1  0.80340000  0.63050000  0.96800000  1.0
  N  N183  1  0.80160000  0.46680000  0.65870000  1.0
  N  N184  1  0.10847000  0.34540000  0.61130000  1.0
  N  N185  1  0.21510000  0.27000000  0.65490000  1.0
  N  N186  1  0.30340000  0.13050000  0.96800000  1.0
  N  N187  1  0.30160000  0.96680000  0.65870000  1.0
