# generated using pymatgen
data_Cd3H34C46(N2O3)4
_symmetry_space_group_name_H-M   'P 1'
_cell_length_a   9.85360000
_cell_length_b   9.85360000
_cell_length_c   48.88650000
_cell_angle_alpha   90.00000000
_cell_angle_beta   90.00000000
_cell_angle_gamma   90.00000000
_symmetry_Int_Tables_number   1
_chemical_formula_structural   Cd3H34C46(N2O3)4
_chemical_formula_sum   'Cd12 H136 C184 N32 O48'
_cell_volume   4746.55811040
_cell_formula_units_Z   4
loop_
 _symmetry_equiv_pos_site_id
 _symmetry_equiv_pos_as_xyz
  1  'x, y, z'
loop_
 _atom_site_type_symbol
 _atom_site_label
 _atom_site_symmetry_multiplicity
 _atom_site_fract_x
 _atom_site_fract_y
 _atom_site_fract_z
 _atom_site_occupancy
  Cd  Cd0  1  0.75151000  0.80887000  0.07767000  1.0
  Cd  Cd1  1  0.24849000  0.19113000  0.57767000  1.0
  Cd  Cd2  1  0.69113000  0.25151000  0.32767000  1.0
  Cd  Cd3  1  0.30887000  0.74849000  0.82767000  1.0
  Cd  Cd4  1  0.74849000  0.30887000  0.17233000  1.0
  Cd  Cd5  1  0.25151000  0.69113000  0.67233000  1.0
  Cd  Cd6  1  0.80887000  0.75151000  0.92233000  1.0
  Cd  Cd7  1  0.19113000  0.24849000  0.42233000  1.0
  Cd  Cd8  1  0.69472000  0.30528000  0.25000000  1.0
  Cd  Cd9  1  0.30528000  0.69472000  0.75000000  1.0
  Cd  Cd10  1  0.19472000  0.19472000  0.50000000  1.0
  Cd  Cd11  1  0.80528000  0.80528000  0.00000000  1.0
  H  H12  1  0.70230000  0.59490000  0.16860000  1.0
  H  H13  1  0.69760000  0.80860000  0.23890000  1.0
  H  H14  1  0.75660000  0.99860000  0.16740000  1.0
  H  H15  1  0.47760000  0.46250000  0.03790000  1.0
  H  H16  1  0.47930000  0.22600000  0.03530000  1.0
  H  H17  1  0.08250000  0.22380000  0.04370000  1.0
  H  H18  1  0.08610000  0.45640000  0.04860000  1.0
  H  H19  1  0.36810000  0.65220000  0.06350000  1.0
  H  H20  1  0.28730000  0.68330000  0.03660000  1.0
  H  H21  1  0.22170000  0.60990000  0.10890000  1.0
  H  H22  1  0.99350000  0.68310000  0.12200000  1.0
  H  H23  1  0.03980000  0.75240000  0.04350000  1.0
  H  H24  1  0.18680000  0.01730000  0.03530000  1.0
  H  H25  1  0.31190000  0.02760000  0.01560000  1.0
  H  H26  1  0.25300000  0.00430000  0.08970000  1.0
  H  H27  1  0.45750000  0.90440000  0.11070000  1.0
  H  H28  1  0.52830000  0.92880000  0.03300000  1.0
  H  H29  1  0.29770000  0.40510000  0.66860000  1.0
  H  H30  1  0.30240000  0.19140000  0.73890000  1.0
  H  H31  1  0.24340000  0.00140000  0.66740000  1.0
  H  H32  1  0.52240000  0.53750000  0.53790000  1.0
  H  H33  1  0.52070000  0.77400000  0.53530000  1.0
  H  H34  1  0.91750000  0.77620000  0.54370000  1.0
  H  H35  1  0.91390000  0.54360000  0.54860000  1.0
  H  H36  1  0.63190000  0.34780000  0.56350000  1.0
  H  H37  1  0.71270000  0.31670000  0.53660000  1.0
  H  H38  1  0.77830000  0.39010000  0.60890000  1.0
  H  H39  1  0.00650000  0.31690000  0.62200000  1.0
  H  H40  1  0.96020000  0.24760000  0.54350000  1.0
  H  H41  1  0.81320000  0.98270000  0.53530000  1.0
  H  H42  1  0.68810000  0.97240000  0.51560000  1.0
  H  H43  1  0.74700000  0.99570000  0.58970000  1.0
  H  H44  1  0.54250000  0.09560000  0.61070000  1.0
  H  H45  1  0.47170000  0.07120000  0.53300000  1.0
  H  H46  1  0.90510000  0.20230000  0.41860000  1.0
  H  H47  1  0.69140000  0.19760000  0.48890000  1.0
  H  H48  1  0.50140000  0.25660000  0.41740000  1.0
  H  H49  1  0.03750000  0.97760000  0.28790000  1.0
  H  H50  1  0.27400000  0.97930000  0.28530000  1.0
  H  H51  1  0.27620000  0.58250000  0.29370000  1.0
  H  H52  1  0.04360000  0.58610000  0.29860000  1.0
  H  H53  1  0.84780000  0.86810000  0.31350000  1.0
  H  H54  1  0.81670000  0.78730000  0.28660000  1.0
  H  H55  1  0.89010000  0.72170000  0.35890000  1.0
  H  H56  1  0.81690000  0.49350000  0.37200000  1.0
  H  H57  1  0.74760000  0.53980000  0.29350000  1.0
  H  H58  1  0.48270000  0.68680000  0.28530000  1.0
  H  H59  1  0.47240000  0.81190000  0.26560000  1.0
  H  H60  1  0.49570000  0.75300000  0.33970000  1.0
  H  H61  1  0.59560000  0.95750000  0.36070000  1.0
  H  H62  1  0.57120000  0.02830000  0.28300000  1.0
  H  H63  1  0.09490000  0.79770000  0.91860000  1.0
  H  H64  1  0.30860000  0.80240000  0.98890000  1.0
  H  H65  1  0.49860000  0.74340000  0.91740000  1.0
  H  H66  1  0.96250000  0.02240000  0.78790000  1.0
  H  H67  1  0.72600000  0.02070000  0.78530000  1.0
  H  H68  1  0.72380000  0.41750000  0.79370000  1.0
  H  H69  1  0.95640000  0.41390000  0.79860000  1.0
  H  H70  1  0.15220000  0.13190000  0.81350000  1.0
  H  H71  1  0.18330000  0.21270000  0.78660000  1.0
  H  H72  1  0.10990000  0.27830000  0.85890000  1.0
  H  H73  1  0.18310000  0.50650000  0.87200000  1.0
  H  H74  1  0.25240000  0.46020000  0.79350000  1.0
  H  H75  1  0.51730000  0.31320000  0.78530000  1.0
  H  H76  1  0.52760000  0.18810000  0.76560000  1.0
  H  H77  1  0.50430000  0.24700000  0.83970000  1.0
  H  H78  1  0.40440000  0.04250000  0.86070000  1.0
  H  H79  1  0.42880000  0.97170000  0.78300000  1.0
  H  H80  1  0.79770000  0.09490000  0.08140000  1.0
  H  H81  1  0.80240000  0.30860000  0.01110000  1.0
  H  H82  1  0.74340000  0.49860000  0.08260000  1.0
  H  H83  1  0.02240000  0.96250000  0.21210000  1.0
  H  H84  1  0.02070000  0.72600000  0.21470000  1.0
  H  H85  1  0.41750000  0.72380000  0.20630000  1.0
  H  H86  1  0.41390000  0.95640000  0.20140000  1.0
  H  H87  1  0.13190000  0.15220000  0.18650000  1.0
  H  H88  1  0.21270000  0.18330000  0.21340000  1.0
  H  H89  1  0.27830000  0.10990000  0.14110000  1.0
  H  H90  1  0.50650000  0.18310000  0.12800000  1.0
  H  H91  1  0.46020000  0.25240000  0.20650000  1.0
  H  H92  1  0.31320000  0.51730000  0.21470000  1.0
  H  H93  1  0.18810000  0.52760000  0.23440000  1.0
  H  H94  1  0.24700000  0.50430000  0.16030000  1.0
  H  H95  1  0.04250000  0.40440000  0.13930000  1.0
  H  H96  1  0.97170000  0.42880000  0.21700000  1.0
  H  H97  1  0.20230000  0.90510000  0.58140000  1.0
  H  H98  1  0.19760000  0.69140000  0.51110000  1.0
  H  H99  1  0.25660000  0.50140000  0.58260000  1.0
  H  H100  1  0.97760000  0.03750000  0.71210000  1.0
  H  H101  1  0.97930000  0.27400000  0.71470000  1.0
  H  H102  1  0.58250000  0.27620000  0.70630000  1.0
  H  H103  1  0.58610000  0.04360000  0.70140000  1.0
  H  H104  1  0.86810000  0.84780000  0.68650000  1.0
  H  H105  1  0.78730000  0.81670000  0.71340000  1.0
  H  H106  1  0.72170000  0.89010000  0.64110000  1.0
  H  H107  1  0.49350000  0.81690000  0.62800000  1.0
  H  H108  1  0.53980000  0.74760000  0.70650000  1.0
  H  H109  1  0.68680000  0.48270000  0.71470000  1.0
  H  H110  1  0.81190000  0.47240000  0.73440000  1.0
  H  H111  1  0.75300000  0.49570000  0.66030000  1.0
  H  H112  1  0.95750000  0.59560000  0.63930000  1.0
  H  H113  1  0.02830000  0.57120000  0.71700000  1.0
  H  H114  1  0.59490000  0.70230000  0.83140000  1.0
  H  H115  1  0.80860000  0.69760000  0.76110000  1.0
  H  H116  1  0.99860000  0.75660000  0.83260000  1.0
  H  H117  1  0.46250000  0.47760000  0.96210000  1.0
  H  H118  1  0.22600000  0.47930000  0.96470000  1.0
  H  H119  1  0.22380000  0.08250000  0.95630000  1.0
  H  H120  1  0.45640000  0.08610000  0.95140000  1.0
  H  H121  1  0.65220000  0.36810000  0.93650000  1.0
  H  H122  1  0.68330000  0.28730000  0.96340000  1.0
  H  H123  1  0.60990000  0.22170000  0.89110000  1.0
  H  H124  1  0.68310000  0.99350000  0.87800000  1.0
  H  H125  1  0.75240000  0.03980000  0.95650000  1.0
  H  H126  1  0.01730000  0.18680000  0.96470000  1.0
  H  H127  1  0.02760000  0.31190000  0.98440000  1.0
  H  H128  1  0.00430000  0.25300000  0.91030000  1.0
  H  H129  1  0.90440000  0.45750000  0.88930000  1.0
  H  H130  1  0.92880000  0.52830000  0.96700000  1.0
  H  H131  1  0.40510000  0.29770000  0.33140000  1.0
  H  H132  1  0.19140000  0.30240000  0.26110000  1.0
  H  H133  1  0.00140000  0.24340000  0.33260000  1.0
  H  H134  1  0.53750000  0.52240000  0.46210000  1.0
  H  H135  1  0.77400000  0.52070000  0.46470000  1.0
  H  H136  1  0.77620000  0.91750000  0.45630000  1.0
  H  H137  1  0.54360000  0.91390000  0.45140000  1.0
  H  H138  1  0.34780000  0.63190000  0.43650000  1.0
  H  H139  1  0.31670000  0.71270000  0.46340000  1.0
  H  H140  1  0.39010000  0.77830000  0.39110000  1.0
  H  H141  1  0.31690000  0.00650000  0.37800000  1.0
  H  H142  1  0.24760000  0.96020000  0.45650000  1.0
  H  H143  1  0.98270000  0.81320000  0.46470000  1.0
  H  H144  1  0.97240000  0.68810000  0.48440000  1.0
  H  H145  1  0.99570000  0.74700000  0.41030000  1.0
  H  H146  1  0.09560000  0.54250000  0.38930000  1.0
  H  H147  1  0.07120000  0.47170000  0.46700000  1.0
  C  C148  1  0.72130000  0.80170000  0.16290000  1.0
  C  C149  1  0.70720000  0.67730000  0.17790000  1.0
  C  C150  1  0.70080000  0.68060000  0.20650000  1.0
  C  C151  1  0.70560000  0.80540000  0.22000000  1.0
  C  C152  1  0.72240000  0.92700000  0.20490000  1.0
  C  C153  1  0.73620000  0.91980000  0.17700000  1.0
  C  C154  1  0.72990000  0.79960000  0.13290000  1.0
  C  C155  1  0.69020000  0.55320000  0.22220000  1.0
  C  C156  1  0.72580000  0.05960000  0.21960000  1.0
  C  C157  1  0.28320000  0.47580000  0.04650000  1.0
  C  C158  1  0.39800000  0.41300000  0.04030000  1.0
  C  C159  1  0.39800000  0.27200000  0.03730000  1.0
  C  C160  1  0.28030000  0.20400000  0.03730000  1.0
  C  C161  1  0.16420000  0.27080000  0.04260000  1.0
  C  C162  1  0.16700000  0.40900000  0.04620000  1.0
  C  C163  1  0.28570000  0.63160000  0.05350000  1.0
  C  C164  1  0.15700000  0.64700000  0.09730000  1.0
  C  C165  1  0.03090000  0.68800000  0.10450000  1.0
  C  C166  1  0.05740000  0.72560000  0.06140000  1.0
  C  C167  1  0.27900000  0.05000000  0.03370000  1.0
  C  C168  1  0.33200000  0.97700000  0.08090000  1.0
  C  C169  1  0.44700000  0.92000000  0.09200000  1.0
  C  C170  1  0.48580000  0.93320000  0.04990000  1.0
  C  C171  1  0.27870000  0.19830000  0.66290000  1.0
  C  C172  1  0.29280000  0.32270000  0.67790000  1.0
  C  C173  1  0.29920000  0.31940000  0.70650000  1.0
  C  C174  1  0.29440000  0.19460000  0.72000000  1.0
  C  C175  1  0.27760000  0.07300000  0.70490000  1.0
  C  C176  1  0.26380000  0.08020000  0.67700000  1.0
  C  C177  1  0.27010000  0.20040000  0.63290000  1.0
  C  C178  1  0.30980000  0.44680000  0.72220000  1.0
  C  C179  1  0.27420000  0.94040000  0.71960000  1.0
  C  C180  1  0.71680000  0.52420000  0.54650000  1.0
  C  C181  1  0.60200000  0.58700000  0.54030000  1.0
  C  C182  1  0.60200000  0.72800000  0.53730000  1.0
  C  C183  1  0.71970000  0.79600000  0.53730000  1.0
  C  C184  1  0.83580000  0.72920000  0.54260000  1.0
  C  C185  1  0.83300000  0.59100000  0.54620000  1.0
  C  C186  1  0.71430000  0.36840000  0.55350000  1.0
  C  C187  1  0.84300000  0.35300000  0.59730000  1.0
  C  C188  1  0.96910000  0.31200000  0.60450000  1.0
  C  C189  1  0.94260000  0.27440000  0.56140000  1.0
  C  C190  1  0.72100000  0.95000000  0.53370000  1.0
  C  C191  1  0.66800000  0.02300000  0.58090000  1.0
  C  C192  1  0.55300000  0.08000000  0.59200000  1.0
  C  C193  1  0.51420000  0.06680000  0.54990000  1.0
  C  C194  1  0.69830000  0.22130000  0.41290000  1.0
  C  C195  1  0.82270000  0.20720000  0.42790000  1.0
  C  C196  1  0.81940000  0.20080000  0.45650000  1.0
  C  C197  1  0.69460000  0.20560000  0.47000000  1.0
  C  C198  1  0.57300000  0.22240000  0.45490000  1.0
  C  C199  1  0.58020000  0.23620000  0.42700000  1.0
  C  C200  1  0.70040000  0.22990000  0.38290000  1.0
  C  C201  1  0.94680000  0.19020000  0.47220000  1.0
  C  C202  1  0.44040000  0.22580000  0.46960000  1.0
  C  C203  1  0.02420000  0.78320000  0.29650000  1.0
  C  C204  1  0.08700000  0.89800000  0.29030000  1.0
  C  C205  1  0.22800000  0.89800000  0.28730000  1.0
  C  C206  1  0.29600000  0.78030000  0.28730000  1.0
  C  C207  1  0.22920000  0.66420000  0.29260000  1.0
  C  C208  1  0.09100000  0.66700000  0.29620000  1.0
  C  C209  1  0.86840000  0.78570000  0.30350000  1.0
  C  C210  1  0.85300000  0.65700000  0.34730000  1.0
  C  C211  1  0.81200000  0.53090000  0.35450000  1.0
  C  C212  1  0.77440000  0.55740000  0.31140000  1.0
  C  C213  1  0.45000000  0.77900000  0.28370000  1.0
  C  C214  1  0.52300000  0.83200000  0.33090000  1.0
  C  C215  1  0.58000000  0.94700000  0.34200000  1.0
  C  C216  1  0.56680000  0.98580000  0.29990000  1.0
  C  C217  1  0.30170000  0.77870000  0.91290000  1.0
  C  C218  1  0.17730000  0.79280000  0.92790000  1.0
  C  C219  1  0.18060000  0.79920000  0.95650000  1.0
  C  C220  1  0.30540000  0.79440000  0.97000000  1.0
  C  C221  1  0.42700000  0.77760000  0.95490000  1.0
  C  C222  1  0.41980000  0.76380000  0.92700000  1.0
  C  C223  1  0.29960000  0.77010000  0.88290000  1.0
  C  C224  1  0.05320000  0.80980000  0.97220000  1.0
  C  C225  1  0.55960000  0.77420000  0.96960000  1.0
  C  C226  1  0.97580000  0.21680000  0.79650000  1.0
  C  C227  1  0.91300000  0.10200000  0.79030000  1.0
  C  C228  1  0.77200000  0.10200000  0.78730000  1.0
  C  C229  1  0.70400000  0.21970000  0.78730000  1.0
  C  C230  1  0.77080000  0.33580000  0.79260000  1.0
  C  C231  1  0.90900000  0.33300000  0.79620000  1.0
  C  C232  1  0.13160000  0.21430000  0.80350000  1.0
  C  C233  1  0.14700000  0.34300000  0.84730000  1.0
  C  C234  1  0.18800000  0.46910000  0.85450000  1.0
  C  C235  1  0.22560000  0.44260000  0.81140000  1.0
  C  C236  1  0.55000000  0.22100000  0.78370000  1.0
  C  C237  1  0.47700000  0.16800000  0.83090000  1.0
  C  C238  1  0.42000000  0.05300000  0.84200000  1.0
  C  C239  1  0.43320000  0.01420000  0.79990000  1.0
  C  C240  1  0.77870000  0.30170000  0.08710000  1.0
  C  C241  1  0.79280000  0.17730000  0.07210000  1.0
  C  C242  1  0.79920000  0.18060000  0.04350000  1.0
  C  C243  1  0.79440000  0.30540000  0.03000000  1.0
  C  C244  1  0.77760000  0.42700000  0.04510000  1.0
  C  C245  1  0.76380000  0.41980000  0.07300000  1.0
  C  C246  1  0.77010000  0.29960000  0.11710000  1.0
  C  C247  1  0.80980000  0.05320000  0.02780000  1.0
  C  C248  1  0.77420000  0.55960000  0.03040000  1.0
  C  C249  1  0.21680000  0.97580000  0.20350000  1.0
  C  C250  1  0.10200000  0.91300000  0.20970000  1.0
  C  C251  1  0.10200000  0.77200000  0.21270000  1.0
  C  C252  1  0.21970000  0.70400000  0.21270000  1.0
  C  C253  1  0.33580000  0.77080000  0.20740000  1.0
  C  C254  1  0.33300000  0.90900000  0.20380000  1.0
  C  C255  1  0.21430000  0.13160000  0.19650000  1.0
  C  C256  1  0.34300000  0.14700000  0.15270000  1.0
  C  C257  1  0.46910000  0.18800000  0.14550000  1.0
  C  C258  1  0.44260000  0.22560000  0.18860000  1.0
  C  C259  1  0.22100000  0.55000000  0.21630000  1.0
  C  C260  1  0.16800000  0.47700000  0.16910000  1.0
  C  C261  1  0.05300000  0.42000000  0.15800000  1.0
  C  C262  1  0.01420000  0.43320000  0.20010000  1.0
  C  C263  1  0.22130000  0.69830000  0.58710000  1.0
  C  C264  1  0.20720000  0.82270000  0.57210000  1.0
  C  C265  1  0.20080000  0.81940000  0.54350000  1.0
  C  C266  1  0.20560000  0.69460000  0.53000000  1.0
  C  C267  1  0.22240000  0.57300000  0.54510000  1.0
  C  C268  1  0.23620000  0.58020000  0.57300000  1.0
  C  C269  1  0.22990000  0.70040000  0.61710000  1.0
  C  C270  1  0.19020000  0.94680000  0.52780000  1.0
  C  C271  1  0.22580000  0.44040000  0.53040000  1.0
  C  C272  1  0.78320000  0.02420000  0.70350000  1.0
  C  C273  1  0.89800000  0.08700000  0.70970000  1.0
  C  C274  1  0.89800000  0.22800000  0.71270000  1.0
  C  C275  1  0.78030000  0.29600000  0.71270000  1.0
  C  C276  1  0.66420000  0.22920000  0.70740000  1.0
  C  C277  1  0.66700000  0.09100000  0.70380000  1.0
  C  C278  1  0.78570000  0.86840000  0.69650000  1.0
  C  C279  1  0.65700000  0.85300000  0.65270000  1.0
  C  C280  1  0.53090000  0.81200000  0.64550000  1.0
  C  C281  1  0.55740000  0.77440000  0.68860000  1.0
  C  C282  1  0.77900000  0.45000000  0.71630000  1.0
  C  C283  1  0.83200000  0.52300000  0.66910000  1.0
  C  C284  1  0.94700000  0.58000000  0.65800000  1.0
  C  C285  1  0.98580000  0.56680000  0.70010000  1.0
  C  C286  1  0.80170000  0.72130000  0.83710000  1.0
  C  C287  1  0.67730000  0.70720000  0.82210000  1.0
  C  C288  1  0.68060000  0.70080000  0.79350000  1.0
  C  C289  1  0.80540000  0.70560000  0.78000000  1.0
  C  C290  1  0.92700000  0.72240000  0.79510000  1.0
  C  C291  1  0.91980000  0.73620000  0.82300000  1.0
  C  C292  1  0.79960000  0.72990000  0.86710000  1.0
  C  C293  1  0.55320000  0.69020000  0.77780000  1.0
  C  C294  1  0.05960000  0.72580000  0.78040000  1.0
  C  C295  1  0.47580000  0.28320000  0.95350000  1.0
  C  C296  1  0.41300000  0.39800000  0.95970000  1.0
  C  C297  1  0.27200000  0.39800000  0.96270000  1.0
  C  C298  1  0.20400000  0.28030000  0.96270000  1.0
  C  C299  1  0.27080000  0.16420000  0.95740000  1.0
  C  C300  1  0.40900000  0.16700000  0.95380000  1.0
  C  C301  1  0.63160000  0.28570000  0.94650000  1.0
  C  C302  1  0.64700000  0.15700000  0.90270000  1.0
  C  C303  1  0.68800000  0.03090000  0.89550000  1.0
  C  C304  1  0.72560000  0.05740000  0.93860000  1.0
  C  C305  1  0.05000000  0.27900000  0.96630000  1.0
  C  C306  1  0.97700000  0.33200000  0.91910000  1.0
  C  C307  1  0.92000000  0.44700000  0.90800000  1.0
  C  C308  1  0.93320000  0.48580000  0.95010000  1.0
  C  C309  1  0.19830000  0.27870000  0.33710000  1.0
  C  C310  1  0.32270000  0.29280000  0.32210000  1.0
  C  C311  1  0.31940000  0.29920000  0.29350000  1.0
  C  C312  1  0.19460000  0.29440000  0.28000000  1.0
  C  C313  1  0.07300000  0.27760000  0.29510000  1.0
  C  C314  1  0.08020000  0.26380000  0.32300000  1.0
  C  C315  1  0.20040000  0.27010000  0.36710000  1.0
  C  C316  1  0.44680000  0.30980000  0.27780000  1.0
  C  C317  1  0.94040000  0.27420000  0.28040000  1.0
  C  C318  1  0.52420000  0.71680000  0.45350000  1.0
  C  C319  1  0.58700000  0.60200000  0.45970000  1.0
  C  C320  1  0.72800000  0.60200000  0.46270000  1.0
  C  C321  1  0.79600000  0.71970000  0.46270000  1.0
  C  C322  1  0.72920000  0.83580000  0.45740000  1.0
  C  C323  1  0.59100000  0.83300000  0.45380000  1.0
  C  C324  1  0.36840000  0.71430000  0.44650000  1.0
  C  C325  1  0.35300000  0.84300000  0.40270000  1.0
  C  C326  1  0.31200000  0.96910000  0.39550000  1.0
  C  C327  1  0.27440000  0.94260000  0.43860000  1.0
  C  C328  1  0.95000000  0.72100000  0.46630000  1.0
  C  C329  1  0.02300000  0.66800000  0.41910000  1.0
  C  C330  1  0.08000000  0.55300000  0.40800000  1.0
  C  C331  1  0.06680000  0.51420000  0.45010000  1.0
  N  N332  1  0.96800000  0.73800000  0.08160000  1.0
  N  N333  1  0.17270000  0.67180000  0.06920000  1.0
  N  N334  1  0.54330000  0.88980000  0.07350000  1.0
  N  N335  1  0.36220000  0.98260000  0.05370000  1.0
  N  N336  1  0.03200000  0.26200000  0.58160000  1.0
  N  N337  1  0.82730000  0.32820000  0.56920000  1.0
  N  N338  1  0.45670000  0.11020000  0.57350000  1.0
  N  N339  1  0.63780000  0.01740000  0.55370000  1.0
  N  N340  1  0.76200000  0.46800000  0.33160000  1.0
  N  N341  1  0.82820000  0.67270000  0.31920000  1.0
  N  N342  1  0.61020000  0.04330000  0.32350000  1.0
  N  N343  1  0.51740000  0.86220000  0.30370000  1.0
  N  N344  1  0.23800000  0.53200000  0.83160000  1.0
  N  N345  1  0.17180000  0.32730000  0.81920000  1.0
  N  N346  1  0.38980000  0.95670000  0.82350000  1.0
  N  N347  1  0.48260000  0.13780000  0.80370000  1.0
  N  N348  1  0.53200000  0.23800000  0.16840000  1.0
  N  N349  1  0.32730000  0.17180000  0.18080000  1.0
  N  N350  1  0.95670000  0.38980000  0.17650000  1.0
  N  N351  1  0.13780000  0.48260000  0.19630000  1.0
  N  N352  1  0.46800000  0.76200000  0.66840000  1.0
  N  N353  1  0.67270000  0.82820000  0.68080000  1.0
  N  N354  1  0.04330000  0.61020000  0.67650000  1.0
  N  N355  1  0.86220000  0.51740000  0.69630000  1.0
  N  N356  1  0.73800000  0.96800000  0.91840000  1.0
  N  N357  1  0.67180000  0.17270000  0.93080000  1.0
  N  N358  1  0.88980000  0.54330000  0.92650000  1.0
  N  N359  1  0.98260000  0.36220000  0.94630000  1.0
  N  N360  1  0.26200000  0.03200000  0.41840000  1.0
  N  N361  1  0.32820000  0.82730000  0.43080000  1.0
  N  N362  1  0.11020000  0.45670000  0.42650000  1.0
  N  N363  1  0.01740000  0.63780000  0.44630000  1.0
  O  O364  1  0.67990000  0.70360000  0.11925000  1.0
  O  O365  1  0.77950000  0.90260000  0.12127000  1.0
  O  O366  1  0.68070000  0.44090000  0.21025000  1.0
  O  O367  1  0.68980000  0.55860000  0.24830000  1.0
  O  O368  1  0.78350000  0.16050000  0.20740000  1.0
  O  O369  1  0.66520000  0.07740000  0.24050000  1.0
  O  O370  1  0.32010000  0.29640000  0.61925000  1.0
  O  O371  1  0.22050000  0.09740000  0.62127000  1.0
  O  O372  1  0.31930000  0.55910000  0.71025000  1.0
  O  O373  1  0.31020000  0.44140000  0.74830000  1.0
  O  O374  1  0.21650000  0.83950000  0.70740000  1.0
  O  O375  1  0.33480000  0.92260000  0.74050000  1.0
  O  O376  1  0.79640000  0.17990000  0.36925000  1.0
  O  O377  1  0.59740000  0.27950000  0.37127000  1.0
  O  O378  1  0.05910000  0.18070000  0.46025000  1.0
  O  O379  1  0.94140000  0.18980000  0.49830000  1.0
  O  O380  1  0.33950000  0.28350000  0.45740000  1.0
  O  O381  1  0.42260000  0.16520000  0.49050000  1.0
  O  O382  1  0.20360000  0.82010000  0.86925000  1.0
  O  O383  1  0.40260000  0.72050000  0.87127000  1.0
  O  O384  1  0.94090000  0.81930000  0.96025000  1.0
  O  O385  1  0.05860000  0.81020000  0.99830000  1.0
  O  O386  1  0.66050000  0.71650000  0.95740000  1.0
  O  O387  1  0.57740000  0.83480000  0.99050000  1.0
  O  O388  1  0.82010000  0.20360000  0.13075000  1.0
  O  O389  1  0.72050000  0.40260000  0.12873000  1.0
  O  O390  1  0.81930000  0.94090000  0.03975000  1.0
  O  O391  1  0.81020000  0.05860000  0.00170000  1.0
  O  O392  1  0.71650000  0.66050000  0.04260000  1.0
  O  O393  1  0.83480000  0.57740000  0.00950000  1.0
  O  O394  1  0.17990000  0.79640000  0.63075000  1.0
  O  O395  1  0.27950000  0.59740000  0.62873000  1.0
  O  O396  1  0.18070000  0.05910000  0.53975000  1.0
  O  O397  1  0.18980000  0.94140000  0.50170000  1.0
  O  O398  1  0.28350000  0.33950000  0.54260000  1.0
  O  O399  1  0.16520000  0.42260000  0.50950000  1.0
  O  O400  1  0.70360000  0.67990000  0.88075000  1.0
  O  O401  1  0.90260000  0.77950000  0.87873000  1.0
  O  O402  1  0.44090000  0.68070000  0.78975000  1.0
  O  O403  1  0.55860000  0.68980000  0.75170000  1.0
  O  O404  1  0.16050000  0.78350000  0.79260000  1.0
  O  O405  1  0.07740000  0.66520000  0.75950000  1.0
  O  O406  1  0.29640000  0.32010000  0.38075000  1.0
  O  O407  1  0.09740000  0.22050000  0.37873000  1.0
  O  O408  1  0.55910000  0.31930000  0.28975000  1.0
  O  O409  1  0.44140000  0.31020000  0.25170000  1.0
  O  O410  1  0.83950000  0.21650000  0.29260000  1.0
  O  O411  1  0.92260000  0.33480000  0.25950000  1.0
