# generated using pymatgen
data_Ce2H3(C5O4)3
_symmetry_space_group_name_H-M   'P 1'
_cell_length_a   9.22520000
_cell_length_b   10.62700000
_cell_length_c   10.80700000
_cell_angle_alpha   86.51000000
_cell_angle_beta   83.93000000
_cell_angle_gamma   81.22000000
_symmetry_Int_Tables_number   1
_chemical_formula_structural   Ce2H3(C5O4)3
_chemical_formula_sum   'Ce4 H6 C30 O24'
_cell_volume   1040.11233096
_cell_formula_units_Z   2
loop_
 _symmetry_equiv_pos_site_id
 _symmetry_equiv_pos_as_xyz
  1  'x, y, z'
loop_
 _atom_site_type_symbol
 _atom_site_label
 _atom_site_symmetry_multiplicity
 _atom_site_fract_x
 _atom_site_fract_y
 _atom_site_fract_z
 _atom_site_occupancy
  Ce  Ce0  1  0.03105000  0.23995000  0.71858000  1.0
  Ce  Ce1  1  0.97759000  0.32305000  0.31373000  1.0
  Ce  Ce2  1  0.96895000  0.76005000  0.28142000  1.0
  Ce  Ce3  1  0.02241000  0.67695000  0.68627000  1.0
  H  H4  1  0.42660000  0.64280000  0.33900000  1.0
  H  H5  1  0.50990000  0.15330000  0.33830000  1.0
  H  H6  1  0.53730000  0.59460000  0.80390000  1.0
  H  H7  1  0.57340000  0.35720000  0.66100000  1.0
  H  H8  1  0.49010000  0.84670000  0.66170000  1.0
  H  H9  1  0.46270000  0.40540000  0.19610000  1.0
  C  C10  1  0.19580000  0.53220000  0.44080000  1.0
  C  C11  1  0.35490000  0.52150000  0.47170000  1.0
  C  C12  1  0.45570000  0.58450000  0.40260000  1.0
  C  C13  1  0.60350000  0.56110000  0.42760000  1.0
  C  C14  1  0.71850000  0.62170000  0.34880000  1.0
  C  C15  1  0.23430000  0.14920000  0.42080000  1.0
  C  C16  1  0.37250000  0.07120000  0.46270000  1.0
  C  C17  1  0.50590000  0.09140000  0.40270000  1.0
  C  C18  1  0.63700000  0.01900000  0.43800000  1.0
  C  C19  1  0.78170000  0.04680000  0.36880000  1.0
  C  C20  1  0.79100000  0.49230000  0.86480000  1.0
  C  C21  1  0.64240000  0.49760000  0.94290000  1.0
  C  C22  1  0.37920000  0.55850000  0.93870000  1.0
  C  C23  1  0.52190000  0.55620000  0.88290000  1.0
  C  C24  1  0.25370000  0.61320000  0.86420000  1.0
  C  C25  1  0.80420000  0.46780000  0.55920000  1.0
  C  C26  1  0.64510000  0.47850000  0.52830000  1.0
  C  C27  1  0.54430000  0.41550000  0.59740000  1.0
  C  C28  1  0.39650000  0.43890000  0.57240000  1.0
  C  C29  1  0.28150000  0.37830000  0.65120000  1.0
  C  C30  1  0.76570000  0.85080000  0.57920000  1.0
  C  C31  1  0.62750000  0.92880000  0.53730000  1.0
  C  C32  1  0.49410000  0.90860000  0.59730000  1.0
  C  C33  1  0.36300000  0.98100000  0.56200000  1.0
  C  C34  1  0.21830000  0.95320000  0.63120000  1.0
  C  C35  1  0.20900000  0.50770000  0.13520000  1.0
  C  C36  1  0.35760000  0.50240000  0.05710000  1.0
  C  C37  1  0.62080000  0.44150000  0.06130000  1.0
  C  C38  1  0.47810000  0.44380000  0.11710000  1.0
  C  C39  1  0.74630000  0.38680000  0.13580000  1.0
  O  O40  1  0.12140000  0.17620000  0.50010000  1.0
  O  O41  1  0.23200000  0.18300000  0.30940000  1.0
  O  O42  1  0.27870000  0.67440000  0.76320000  1.0
  O  O43  1  0.12700000  0.58830000  0.90000000  1.0
  O  O44  1  0.84090000  0.13370000  0.40720000  1.0
  O  O45  1  0.84530000  0.59230000  0.84830000  1.0
  O  O46  1  0.11410000  0.63970000  0.45550000  1.0
  O  O47  1  0.69360000  0.73460000  0.30650000  1.0
  O  O48  1  0.84810000  0.55760000  0.33070000  1.0
  O  O49  1  0.83150000  0.98420000  0.27340000  1.0
  O  O50  1  0.15930000  0.43630000  0.40130000  1.0
  O  O51  1  0.83740000  0.38790000  0.81750000  1.0
  O  O52  1  0.87860000  0.82380000  0.49990000  1.0
  O  O53  1  0.76800000  0.81700000  0.69060000  1.0
  O  O54  1  0.72130000  0.32560000  0.23680000  1.0
  O  O55  1  0.87300000  0.41170000  0.10000000  1.0
  O  O56  1  0.15910000  0.86630000  0.59280000  1.0
  O  O57  1  0.15470000  0.40770000  0.15170000  1.0
  O  O58  1  0.88590000  0.36030000  0.54450000  1.0
  O  O59  1  0.30640000  0.26540000  0.69350000  1.0
  O  O60  1  0.15190000  0.44240000  0.66930000  1.0
  O  O61  1  0.16850000  0.01580000  0.72660000  1.0
  O  O62  1  0.84070000  0.56370000  0.59870000  1.0
  O  O63  1  0.16260000  0.61210000  0.18250000  1.0
