# generated using pymatgen
data_V2P2H5C6(O2F)3
_symmetry_space_group_name_H-M   'P 1'
_cell_length_a   10.01730000
_cell_length_b   19.82780000
_cell_length_c   10.04730000
_cell_angle_alpha   90.00000000
_cell_angle_beta   113.77100000
_cell_angle_gamma   90.00000000
_symmetry_Int_Tables_number   1
_chemical_formula_structural   V2P2H5C6(O2F)3
_chemical_formula_sum   'V8 P8 H20 C24 O24 F12'
_cell_volume   1826.30544670
_cell_formula_units_Z   4
loop_
 _symmetry_equiv_pos_site_id
 _symmetry_equiv_pos_as_xyz
  1  'x, y, z'
loop_
 _atom_site_type_symbol
 _atom_site_label
 _atom_site_symmetry_multiplicity
 _atom_site_fract_x
 _atom_site_fract_y
 _atom_site_fract_z
 _atom_site_occupancy
  V  V0  1  0.28701000  0.25997000  0.73871000  1.0
  V  V1  1  0.26825000  0.10894000  0.49708000  1.0
  V  V2  1  0.71299000  0.75997000  0.76129000  1.0
  V  V3  1  0.73175000  0.60894000  0.00292000  1.0
  V  V4  1  0.71299000  0.74003000  0.26129000  1.0
  V  V5  1  0.73175000  0.89106000  0.50292000  1.0
  V  V6  1  0.28701000  0.24003000  0.23871000  1.0
  V  V7  1  0.26825000  0.39106000  0.99708000  1.0
  P  P8  1  0.00944000  0.36448000  0.67902000  1.0
  P  P9  1  0.51163000  0.13468000  0.82832000  1.0
  P  P10  1  0.99056000  0.86448000  0.82098000  1.0
  P  P11  1  0.48837000  0.63468000  0.67168000  1.0
  P  P12  1  0.99056000  0.63552000  0.32098000  1.0
  P  P13  1  0.48837000  0.86532000  0.17168000  1.0
  P  P14  1  0.00944000  0.13552000  0.17902000  1.0
  P  P15  1  0.51163000  0.36532000  0.32832000  1.0
  H  H16  1  0.17530000  0.41760000  0.52510000  1.0
  H  H17  1  0.83510000  0.48500000  0.60860000  1.0
  H  H18  1  0.43640000  0.00600000  0.20050000  1.0
  H  H19  1  0.44310000  0.10410000  0.07470000  1.0
  H  H20  1  0.74700000  0.16200000  0.98800000  1.0
  H  H21  1  0.82470000  0.91760000  0.97490000  1.0
  H  H22  1  0.16490000  0.98500000  0.89140000  1.0
  H  H23  1  0.56360000  0.50600000  0.29950000  1.0
  H  H24  1  0.55690000  0.60410000  0.42530000  1.0
  H  H25  1  0.25300000  0.66200000  0.51200000  1.0
  H  H26  1  0.82470000  0.58240000  0.47490000  1.0
  H  H27  1  0.16490000  0.51500000  0.39140000  1.0
  H  H28  1  0.56360000  0.99400000  0.79950000  1.0
  H  H29  1  0.55690000  0.89590000  0.92530000  1.0
  H  H30  1  0.25300000  0.83800000  0.01200000  1.0
  H  H31  1  0.17530000  0.08240000  0.02510000  1.0
  H  H32  1  0.83510000  0.01500000  0.10860000  1.0
  H  H33  1  0.43640000  0.49400000  0.70050000  1.0
  H  H34  1  0.44310000  0.39590000  0.57470000  1.0
  H  H35  1  0.74700000  0.33800000  0.48800000  1.0
  C  C36  1  0.46600000  0.06193000  0.04420000  1.0
  C  C37  1  0.00590000  0.44103000  0.58020000  1.0
  C  C38  1  0.10380000  0.45093000  0.51500000  1.0
  C  C39  1  0.90220000  0.49089000  0.56450000  1.0
  C  C40  1  0.50290000  0.05911000  0.92380000  1.0
  C  C41  1  0.46240000  0.00349000  0.11950000  1.0
  C  C42  1  0.53400000  0.56193000  0.45580000  1.0
  C  C43  1  0.99410000  0.94103000  0.91980000  1.0
  C  C44  1  0.89620000  0.95093000  0.98500000  1.0
  C  C45  1  0.09780000  0.99089000  0.93550000  1.0
  C  C46  1  0.49710000  0.55911000  0.57620000  1.0
  C  C47  1  0.53760000  0.50349000  0.38050000  1.0
  C  C48  1  0.53400000  0.93807000  0.95580000  1.0
  C  C49  1  0.99410000  0.55897000  0.41980000  1.0
  C  C50  1  0.89620000  0.54907000  0.48500000  1.0
  C  C51  1  0.09780000  0.50911000  0.43550000  1.0
  C  C52  1  0.49710000  0.94089000  0.07620000  1.0
  C  C53  1  0.53760000  0.99651000  0.88050000  1.0
  C  C54  1  0.46600000  0.43807000  0.54420000  1.0
  C  C55  1  0.00590000  0.05897000  0.08020000  1.0
  C  C56  1  0.10380000  0.04907000  0.01500000  1.0
  C  C57  1  0.90220000  0.00911000  0.06450000  1.0
  C  C58  1  0.50290000  0.44089000  0.42380000  1.0
  C  C59  1  0.46240000  0.49651000  0.61950000  1.0
  O  O60  1  0.10650000  0.31496000  0.64370000  1.0
  O  O61  1  0.85190000  0.34022000  0.63020000  1.0
  O  O62  1  0.06510000  0.37979000  0.84220000  1.0
  O  O63  1  0.46350000  0.11777000  0.66700000  1.0
  O  O64  1  0.67180000  0.15704000  0.88100000  1.0
  O  O65  1  0.41590000  0.18663000  0.85860000  1.0
  O  O66  1  0.89350000  0.81496000  0.85630000  1.0
  O  O67  1  0.14810000  0.84022000  0.86980000  1.0
  O  O68  1  0.93490000  0.87979000  0.65780000  1.0
  O  O69  1  0.53650000  0.61777000  0.83300000  1.0
  O  O70  1  0.32820000  0.65704000  0.61900000  1.0
  O  O71  1  0.58410000  0.68663000  0.64140000  1.0
  O  O72  1  0.89350000  0.68504000  0.35630000  1.0
  O  O73  1  0.14810000  0.65978000  0.36980000  1.0
  O  O74  1  0.93490000  0.62021000  0.15780000  1.0
  O  O75  1  0.53650000  0.88223000  0.33300000  1.0
  O  O76  1  0.32820000  0.84296000  0.11900000  1.0
  O  O77  1  0.58410000  0.81337000  0.14140000  1.0
  O  O78  1  0.10650000  0.18504000  0.14370000  1.0
  O  O79  1  0.85190000  0.15978000  0.13020000  1.0
  O  O80  1  0.06510000  0.12021000  0.34220000  1.0
  O  O81  1  0.46350000  0.38223000  0.16700000  1.0
  O  O82  1  0.67180000  0.34296000  0.38100000  1.0
  O  O83  1  0.41590000  0.31337000  0.35860000  1.0
  F  F84  1  0.19426000  0.19330000  0.58641000  1.0
  F  F85  1  0.34077000  0.31324000  0.91588000  1.0
  F  F86  1  0.19739000  0.05531000  0.59976000  1.0
  F  F87  1  0.80574000  0.69330000  0.91359000  1.0
  F  F88  1  0.65923000  0.81324000  0.58412000  1.0
  F  F89  1  0.80261000  0.55531000  0.90024000  1.0
  F  F90  1  0.80574000  0.80670000  0.41359000  1.0
  F  F91  1  0.65923000  0.68676000  0.08412000  1.0
  F  F92  1  0.80261000  0.94469000  0.40024000  1.0
  F  F93  1  0.19426000  0.30670000  0.08641000  1.0
  F  F94  1  0.34077000  0.18676000  0.41588000  1.0
  F  F95  1  0.19739000  0.44469000  0.09976000  1.0
