# generated using pymatgen
data_AgH4C6NO2
_symmetry_space_group_name_H-M   'P 1'
_cell_length_a   7.21270000
_cell_length_b   23.76520000
_cell_length_c   30.73200000
_cell_angle_alpha   90.00000000
_cell_angle_beta   90.00000000
_cell_angle_gamma   90.00000000
_symmetry_Int_Tables_number   1
_chemical_formula_structural   AgH4C6NO2
_chemical_formula_sum   'Ag32 H128 C192 N32 O64'
_cell_volume   5267.81078209
_cell_formula_units_Z   32
loop_
 _symmetry_equiv_pos_site_id
 _symmetry_equiv_pos_as_xyz
  1  'x, y, z'
loop_
 _atom_site_type_symbol
 _atom_site_label
 _atom_site_symmetry_multiplicity
 _atom_site_fract_x
 _atom_site_fract_y
 _atom_site_fract_z
 _atom_site_occupancy
  Ag  Ag0  1  0.19524000  0.77001000  0.29069000  1.0
  Ag  Ag1  1  0.52785000  0.44257000  0.48416000  1.0
  Ag  Ag2  1  0.69524000  0.27001000  0.79069000  1.0
  Ag  Ag3  1  0.02785000  0.94257000  0.98416000  1.0
  Ag  Ag4  1  0.30476000  0.22999000  0.79069000  1.0
  Ag  Ag5  1  0.97215000  0.55743000  0.98416000  1.0
  Ag  Ag6  1  0.80476000  0.72999000  0.29069000  1.0
  Ag  Ag7  1  0.47215000  0.05743000  0.48416000  1.0
  Ag  Ag8  1  0.80476000  0.27001000  0.20931000  1.0
  Ag  Ag9  1  0.47215000  0.94257000  0.01584000  1.0
  Ag  Ag10  1  0.30476000  0.77001000  0.70931000  1.0
  Ag  Ag11  1  0.97215000  0.44257000  0.51584000  1.0
  Ag  Ag12  1  0.69524000  0.72999000  0.70931000  1.0
  Ag  Ag13  1  0.02785000  0.05743000  0.51584000  1.0
  Ag  Ag14  1  0.19524000  0.22999000  0.20931000  1.0
  Ag  Ag15  1  0.52785000  0.55743000  0.01584000  1.0
  Ag  Ag16  1  0.80476000  0.22999000  0.70931000  1.0
  Ag  Ag17  1  0.47215000  0.55743000  0.51584000  1.0
  Ag  Ag18  1  0.30476000  0.72999000  0.20931000  1.0
  Ag  Ag19  1  0.97215000  0.05743000  0.01584000  1.0
  Ag  Ag20  1  0.69524000  0.77001000  0.20931000  1.0
  Ag  Ag21  1  0.02785000  0.44257000  0.01584000  1.0
  Ag  Ag22  1  0.19524000  0.27001000  0.70931000  1.0
  Ag  Ag23  1  0.52785000  0.94257000  0.51584000  1.0
  Ag  Ag24  1  0.19524000  0.72999000  0.79069000  1.0
  Ag  Ag25  1  0.52785000  0.05743000  0.98416000  1.0
  Ag  Ag26  1  0.69524000  0.22999000  0.29069000  1.0
  Ag  Ag27  1  0.02785000  0.55743000  0.48416000  1.0
  Ag  Ag28  1  0.30476000  0.27001000  0.29069000  1.0
  Ag  Ag29  1  0.97215000  0.94257000  0.48416000  1.0
  Ag  Ag30  1  0.80476000  0.77001000  0.79069000  1.0
  Ag  Ag31  1  0.47215000  0.44257000  0.98416000  1.0
  H  H32  1  0.95390000  0.86990000  0.32860000  1.0
  H  H33  1  0.88060000  0.92020000  0.38990000  1.0
  H  H34  1  0.16950000  0.81610000  0.46050000  1.0
  H  H35  1  0.24550000  0.76600000  0.39950000  1.0
  H  H36  1  0.64740000  0.58140000  0.25770000  1.0
  H  H37  1  0.80320000  0.50900000  0.29270000  1.0
  H  H38  1  0.77650000  0.49780000  0.36690000  1.0
  H  H39  1  0.43770000  0.63220000  0.37270000  1.0
  H  H40  1  0.45390000  0.36990000  0.82860000  1.0
  H  H41  1  0.38060000  0.42020000  0.88990000  1.0
  H  H42  1  0.66950000  0.31610000  0.96050000  1.0
  H  H43  1  0.74550000  0.26600000  0.89950000  1.0
  H  H44  1  0.14740000  0.08140000  0.75770000  1.0
  H  H45  1  0.30320000  0.00900000  0.79270000  1.0
  H  H46  1  0.27650000  0.99780000  0.86690000  1.0
  H  H47  1  0.93770000  0.13220000  0.87270000  1.0
  H  H48  1  0.54610000  0.13010000  0.82860000  1.0
  H  H49  1  0.61940000  0.07980000  0.88990000  1.0
  H  H50  1  0.33050000  0.18390000  0.96050000  1.0
  H  H51  1  0.25450000  0.23400000  0.89950000  1.0
  H  H52  1  0.85260000  0.41860000  0.75770000  1.0
  H  H53  1  0.69680000  0.49100000  0.79270000  1.0
  H  H54  1  0.72350000  0.50220000  0.86690000  1.0
  H  H55  1  0.06230000  0.36780000  0.87270000  1.0
  H  H56  1  0.04610000  0.63010000  0.32860000  1.0
  H  H57  1  0.11940000  0.57980000  0.38990000  1.0
  H  H58  1  0.83050000  0.68390000  0.46050000  1.0
  H  H59  1  0.75450000  0.73400000  0.39950000  1.0
  H  H60  1  0.35260000  0.91860000  0.25770000  1.0
  H  H61  1  0.19680000  0.99100000  0.29270000  1.0
  H  H62  1  0.22350000  0.00220000  0.36690000  1.0
  H  H63  1  0.56230000  0.86780000  0.37270000  1.0
  H  H64  1  0.04610000  0.36990000  0.17140000  1.0
  H  H65  1  0.11940000  0.42020000  0.11010000  1.0
  H  H66  1  0.83050000  0.31610000  0.03950000  1.0
  H  H67  1  0.75450000  0.26600000  0.10050000  1.0
  H  H68  1  0.35260000  0.08140000  0.24230000  1.0
  H  H69  1  0.19680000  0.00900000  0.20730000  1.0
  H  H70  1  0.22350000  0.99780000  0.13310000  1.0
  H  H71  1  0.56230000  0.13220000  0.12730000  1.0
  H  H72  1  0.54610000  0.86990000  0.67140000  1.0
  H  H73  1  0.61940000  0.92020000  0.61010000  1.0
  H  H74  1  0.33050000  0.81610000  0.53950000  1.0
  H  H75  1  0.25450000  0.76600000  0.60050000  1.0
  H  H76  1  0.85260000  0.58140000  0.74230000  1.0
  H  H77  1  0.69680000  0.50900000  0.70730000  1.0
  H  H78  1  0.72350000  0.49780000  0.63310000  1.0
  H  H79  1  0.06230000  0.63220000  0.62730000  1.0
  H  H80  1  0.45390000  0.63010000  0.67140000  1.0
  H  H81  1  0.38060000  0.57980000  0.61010000  1.0
  H  H82  1  0.66950000  0.68390000  0.53950000  1.0
  H  H83  1  0.74550000  0.73400000  0.60050000  1.0
  H  H84  1  0.14740000  0.91860000  0.74230000  1.0
  H  H85  1  0.30320000  0.99100000  0.70730000  1.0
  H  H86  1  0.27650000  0.00220000  0.63310000  1.0
  H  H87  1  0.93770000  0.86780000  0.62730000  1.0
  H  H88  1  0.95390000  0.13010000  0.17140000  1.0
  H  H89  1  0.88060000  0.07980000  0.11010000  1.0
  H  H90  1  0.16950000  0.18390000  0.03950000  1.0
  H  H91  1  0.24550000  0.23400000  0.10050000  1.0
  H  H92  1  0.64740000  0.41860000  0.24230000  1.0
  H  H93  1  0.80320000  0.49100000  0.20730000  1.0
  H  H94  1  0.77650000  0.50220000  0.13310000  1.0
  H  H95  1  0.43770000  0.36780000  0.12730000  1.0
  H  H96  1  0.04610000  0.13010000  0.67140000  1.0
  H  H97  1  0.11940000  0.07980000  0.61010000  1.0
  H  H98  1  0.83050000  0.18390000  0.53950000  1.0
  H  H99  1  0.75450000  0.23400000  0.60050000  1.0
  H  H100  1  0.35260000  0.41860000  0.74230000  1.0
  H  H101  1  0.19680000  0.49100000  0.70730000  1.0
  H  H102  1  0.22350000  0.50220000  0.63310000  1.0
  H  H103  1  0.56230000  0.36780000  0.62730000  1.0
  H  H104  1  0.54610000  0.63010000  0.17140000  1.0
  H  H105  1  0.61940000  0.57980000  0.11010000  1.0
  H  H106  1  0.33050000  0.68390000  0.03950000  1.0
  H  H107  1  0.25450000  0.73400000  0.10050000  1.0
  H  H108  1  0.85260000  0.91860000  0.24230000  1.0
  H  H109  1  0.69680000  0.99100000  0.20730000  1.0
  H  H110  1  0.72350000  0.00220000  0.13310000  1.0
  H  H111  1  0.06230000  0.86780000  0.12730000  1.0
  H  H112  1  0.45390000  0.86990000  0.17140000  1.0
  H  H113  1  0.38060000  0.92020000  0.11010000  1.0
  H  H114  1  0.66950000  0.81610000  0.03950000  1.0
  H  H115  1  0.74550000  0.76600000  0.10050000  1.0
  H  H116  1  0.14740000  0.58140000  0.24230000  1.0
  H  H117  1  0.30320000  0.50900000  0.20730000  1.0
  H  H118  1  0.27650000  0.49780000  0.13310000  1.0
  H  H119  1  0.93770000  0.63220000  0.12730000  1.0
  H  H120  1  0.95390000  0.36990000  0.67140000  1.0
  H  H121  1  0.88060000  0.42020000  0.61010000  1.0
  H  H122  1  0.16950000  0.31610000  0.53950000  1.0
  H  H123  1  0.24550000  0.26600000  0.60050000  1.0
  H  H124  1  0.64740000  0.08140000  0.74230000  1.0
  H  H125  1  0.80320000  0.00900000  0.70730000  1.0
  H  H126  1  0.77650000  0.99780000  0.63310000  1.0
  H  H127  1  0.43770000  0.13220000  0.62730000  1.0
  H  H128  1  0.95390000  0.63010000  0.82860000  1.0
  H  H129  1  0.88060000  0.57980000  0.88990000  1.0
  H  H130  1  0.16950000  0.68390000  0.96050000  1.0
  H  H131  1  0.24550000  0.73400000  0.89950000  1.0
  H  H132  1  0.64740000  0.91860000  0.75770000  1.0
  H  H133  1  0.80320000  0.99100000  0.79270000  1.0
  H  H134  1  0.77650000  0.00220000  0.86690000  1.0
  H  H135  1  0.43770000  0.86780000  0.87270000  1.0
  H  H136  1  0.45390000  0.13010000  0.32860000  1.0
  H  H137  1  0.38060000  0.07980000  0.38990000  1.0
  H  H138  1  0.66950000  0.18390000  0.46050000  1.0
  H  H139  1  0.74550000  0.23400000  0.39950000  1.0
  H  H140  1  0.14740000  0.41860000  0.25770000  1.0
  H  H141  1  0.30320000  0.49100000  0.29270000  1.0
  H  H142  1  0.27650000  0.50220000  0.36690000  1.0
  H  H143  1  0.93770000  0.36780000  0.37270000  1.0
  H  H144  1  0.54610000  0.36990000  0.32860000  1.0
  H  H145  1  0.61940000  0.42020000  0.38990000  1.0
  H  H146  1  0.33050000  0.31610000  0.46050000  1.0
  H  H147  1  0.25450000  0.26600000  0.39950000  1.0
  H  H148  1  0.85260000  0.08140000  0.25770000  1.0
  H  H149  1  0.69680000  0.00900000  0.29270000  1.0
  H  H150  1  0.72350000  0.99780000  0.36690000  1.0
  H  H151  1  0.06230000  0.13220000  0.37270000  1.0
  H  H152  1  0.04610000  0.86990000  0.82860000  1.0
  H  H153  1  0.11940000  0.92020000  0.88990000  1.0
  H  H154  1  0.83050000  0.81610000  0.96050000  1.0
  H  H155  1  0.75450000  0.76600000  0.89950000  1.0
  H  H156  1  0.35260000  0.58140000  0.75770000  1.0
  H  H157  1  0.19680000  0.50900000  0.79270000  1.0
  H  H158  1  0.22350000  0.49780000  0.86690000  1.0
  H  H159  1  0.56230000  0.63220000  0.87270000  1.0
  C  C160  1  0.00090000  0.85818000  0.35563000  1.0
  C  C161  1  0.95710000  0.88841000  0.39255000  1.0
  C  C162  1  0.12460000  0.82818000  0.43338000  1.0
  C  C163  1  0.16960000  0.79793000  0.39675000  1.0
  C  C164  1  0.43340000  0.66338000  0.28997000  1.0
  C  C165  1  0.52880000  0.61452000  0.31183000  1.0
  C  C166  1  0.63680000  0.57723000  0.28805000  1.0
  C  C167  1  0.72890000  0.53392000  0.30888000  1.0
  C  C168  1  0.71230000  0.52716000  0.35301000  1.0
  C  C169  1  0.60140000  0.56326000  0.37751000  1.0
  C  C170  1  0.51130000  0.60719000  0.35654000  1.0
  C  C171  1  0.57830000  0.55376000  0.42535000  1.0
  C  C172  1  0.50090000  0.35818000  0.85563000  1.0
  C  C173  1  0.45710000  0.38841000  0.89255000  1.0
  C  C174  1  0.62460000  0.32818000  0.93338000  1.0
  C  C175  1  0.66960000  0.29793000  0.89675000  1.0
  C  C176  1  0.93340000  0.16338000  0.78997000  1.0
  C  C177  1  0.02880000  0.11452000  0.81183000  1.0
  C  C178  1  0.13680000  0.07723000  0.78805000  1.0
  C  C179  1  0.22890000  0.03392000  0.80888000  1.0
  C  C180  1  0.21230000  0.02716000  0.85301000  1.0
  C  C181  1  0.10140000  0.06326000  0.87751000  1.0
  C  C182  1  0.01130000  0.10719000  0.85654000  1.0
  C  C183  1  0.07830000  0.05376000  0.92535000  1.0
  C  C184  1  0.49910000  0.14182000  0.85563000  1.0
  C  C185  1  0.54290000  0.11159000  0.89255000  1.0
  C  C186  1  0.37540000  0.17182000  0.93338000  1.0
  C  C187  1  0.33040000  0.20207000  0.89675000  1.0
  C  C188  1  0.06660000  0.33662000  0.78997000  1.0
  C  C189  1  0.97120000  0.38548000  0.81183000  1.0
  C  C190  1  0.86320000  0.42277000  0.78805000  1.0
  C  C191  1  0.77110000  0.46608000  0.80888000  1.0
  C  C192  1  0.78770000  0.47284000  0.85301000  1.0
  C  C193  1  0.89860000  0.43674000  0.87751000  1.0
  C  C194  1  0.98870000  0.39281000  0.85654000  1.0
  C  C195  1  0.92170000  0.44624000  0.92535000  1.0
  C  C196  1  0.99910000  0.64182000  0.35563000  1.0
  C  C197  1  0.04290000  0.61159000  0.39255000  1.0
  C  C198  1  0.87540000  0.67182000  0.43338000  1.0
  C  C199  1  0.83040000  0.70207000  0.39675000  1.0
  C  C200  1  0.56660000  0.83662000  0.28997000  1.0
  C  C201  1  0.47120000  0.88548000  0.31183000  1.0
  C  C202  1  0.36320000  0.92277000  0.28805000  1.0
  C  C203  1  0.27110000  0.96608000  0.30888000  1.0
  C  C204  1  0.28770000  0.97284000  0.35301000  1.0
  C  C205  1  0.39860000  0.93674000  0.37751000  1.0
  C  C206  1  0.48870000  0.89281000  0.35654000  1.0
  C  C207  1  0.42170000  0.94624000  0.42535000  1.0
  C  C208  1  0.99910000  0.35818000  0.14437000  1.0
  C  C209  1  0.04290000  0.38841000  0.10745000  1.0
  C  C210  1  0.87540000  0.32818000  0.06662000  1.0
  C  C211  1  0.83040000  0.29793000  0.10325000  1.0
  C  C212  1  0.56660000  0.16338000  0.21003000  1.0
  C  C213  1  0.47120000  0.11452000  0.18817000  1.0
  C  C214  1  0.36320000  0.07723000  0.21195000  1.0
  C  C215  1  0.27110000  0.03392000  0.19112000  1.0
  C  C216  1  0.28770000  0.02716000  0.14699000  1.0
  C  C217  1  0.39860000  0.06326000  0.12249000  1.0
  C  C218  1  0.48870000  0.10719000  0.14346000  1.0
  C  C219  1  0.42170000  0.05376000  0.07465000  1.0
  C  C220  1  0.49910000  0.85818000  0.64437000  1.0
  C  C221  1  0.54290000  0.88841000  0.60745000  1.0
  C  C222  1  0.37540000  0.82818000  0.56662000  1.0
  C  C223  1  0.33040000  0.79793000  0.60325000  1.0
  C  C224  1  0.06660000  0.66338000  0.71003000  1.0
  C  C225  1  0.97120000  0.61452000  0.68817000  1.0
  C  C226  1  0.86320000  0.57723000  0.71195000  1.0
  C  C227  1  0.77110000  0.53392000  0.69112000  1.0
  C  C228  1  0.78770000  0.52716000  0.64699000  1.0
  C  C229  1  0.89860000  0.56326000  0.62249000  1.0
  C  C230  1  0.98870000  0.60719000  0.64346000  1.0
  C  C231  1  0.92170000  0.55376000  0.57465000  1.0
  C  C232  1  0.50090000  0.64182000  0.64437000  1.0
  C  C233  1  0.45710000  0.61159000  0.60745000  1.0
  C  C234  1  0.62460000  0.67182000  0.56662000  1.0
  C  C235  1  0.66960000  0.70207000  0.60325000  1.0
  C  C236  1  0.93340000  0.83662000  0.71003000  1.0
  C  C237  1  0.02880000  0.88548000  0.68817000  1.0
  C  C238  1  0.13680000  0.92277000  0.71195000  1.0
  C  C239  1  0.22890000  0.96608000  0.69112000  1.0
  C  C240  1  0.21230000  0.97284000  0.64699000  1.0
  C  C241  1  0.10140000  0.93674000  0.62249000  1.0
  C  C242  1  0.01130000  0.89281000  0.64346000  1.0
  C  C243  1  0.07830000  0.94624000  0.57465000  1.0
  C  C244  1  0.00090000  0.14182000  0.14437000  1.0
  C  C245  1  0.95710000  0.11159000  0.10745000  1.0
  C  C246  1  0.12460000  0.17182000  0.06662000  1.0
  C  C247  1  0.16960000  0.20207000  0.10325000  1.0
  C  C248  1  0.43340000  0.33662000  0.21003000  1.0
  C  C249  1  0.52880000  0.38548000  0.18817000  1.0
  C  C250  1  0.63680000  0.42277000  0.21195000  1.0
  C  C251  1  0.72890000  0.46608000  0.19112000  1.0
  C  C252  1  0.71230000  0.47284000  0.14699000  1.0
  C  C253  1  0.60140000  0.43674000  0.12249000  1.0
  C  C254  1  0.51130000  0.39281000  0.14346000  1.0
  C  C255  1  0.57830000  0.44624000  0.07465000  1.0
  C  C256  1  0.99910000  0.14182000  0.64437000  1.0
  C  C257  1  0.04290000  0.11159000  0.60745000  1.0
  C  C258  1  0.87540000  0.17182000  0.56662000  1.0
  C  C259  1  0.83040000  0.20207000  0.60325000  1.0
  C  C260  1  0.56660000  0.33662000  0.71003000  1.0
  C  C261  1  0.47120000  0.38548000  0.68817000  1.0
  C  C262  1  0.36320000  0.42277000  0.71195000  1.0
  C  C263  1  0.27110000  0.46608000  0.69112000  1.0
  C  C264  1  0.28770000  0.47284000  0.64699000  1.0
  C  C265  1  0.39860000  0.43674000  0.62249000  1.0
  C  C266  1  0.48870000  0.39281000  0.64346000  1.0
  C  C267  1  0.42170000  0.44624000  0.57465000  1.0
  C  C268  1  0.49910000  0.64182000  0.14437000  1.0
  C  C269  1  0.54290000  0.61159000  0.10745000  1.0
  C  C270  1  0.37540000  0.67182000  0.06662000  1.0
  C  C271  1  0.33040000  0.70207000  0.10325000  1.0
  C  C272  1  0.06660000  0.83662000  0.21003000  1.0
  C  C273  1  0.97120000  0.88548000  0.18817000  1.0
  C  C274  1  0.86320000  0.92277000  0.21195000  1.0
  C  C275  1  0.77110000  0.96608000  0.19112000  1.0
  C  C276  1  0.78770000  0.97284000  0.14699000  1.0
  C  C277  1  0.89860000  0.93674000  0.12249000  1.0
  C  C278  1  0.98870000  0.89281000  0.14346000  1.0
  C  C279  1  0.92170000  0.94624000  0.07465000  1.0
  C  C280  1  0.50090000  0.85818000  0.14437000  1.0
  C  C281  1  0.45710000  0.88841000  0.10745000  1.0
  C  C282  1  0.62460000  0.82818000  0.06662000  1.0
  C  C283  1  0.66960000  0.79793000  0.10325000  1.0
  C  C284  1  0.93340000  0.66338000  0.21003000  1.0
  C  C285  1  0.02880000  0.61452000  0.18817000  1.0
  C  C286  1  0.13680000  0.57723000  0.21195000  1.0
  C  C287  1  0.22890000  0.53392000  0.19112000  1.0
  C  C288  1  0.21230000  0.52716000  0.14699000  1.0
  C  C289  1  0.10140000  0.56326000  0.12249000  1.0
  C  C290  1  0.01130000  0.60719000  0.14346000  1.0
  C  C291  1  0.07830000  0.55376000  0.07465000  1.0
  C  C292  1  0.00090000  0.35818000  0.64437000  1.0
  C  C293  1  0.95710000  0.38841000  0.60745000  1.0
  C  C294  1  0.12460000  0.32818000  0.56662000  1.0
  C  C295  1  0.16960000  0.29793000  0.60325000  1.0
  C  C296  1  0.43340000  0.16338000  0.71003000  1.0
  C  C297  1  0.52880000  0.11452000  0.68817000  1.0
  C  C298  1  0.63680000  0.07723000  0.71195000  1.0
  C  C299  1  0.72890000  0.03392000  0.69112000  1.0
  C  C300  1  0.71230000  0.02716000  0.64699000  1.0
  C  C301  1  0.60140000  0.06326000  0.62249000  1.0
  C  C302  1  0.51130000  0.10719000  0.64346000  1.0
  C  C303  1  0.57830000  0.05376000  0.57465000  1.0
  C  C304  1  0.00090000  0.64182000  0.85563000  1.0
  C  C305  1  0.95710000  0.61159000  0.89255000  1.0
  C  C306  1  0.12460000  0.67182000  0.93338000  1.0
  C  C307  1  0.16960000  0.70207000  0.89675000  1.0
  C  C308  1  0.43340000  0.83662000  0.78997000  1.0
  C  C309  1  0.52880000  0.88548000  0.81183000  1.0
  C  C310  1  0.63680000  0.92277000  0.78805000  1.0
  C  C311  1  0.72890000  0.96608000  0.80888000  1.0
  C  C312  1  0.71230000  0.97284000  0.85301000  1.0
  C  C313  1  0.60140000  0.93674000  0.87751000  1.0
  C  C314  1  0.51130000  0.89281000  0.85654000  1.0
  C  C315  1  0.57830000  0.94624000  0.92535000  1.0
  C  C316  1  0.50090000  0.14182000  0.35563000  1.0
  C  C317  1  0.45710000  0.11159000  0.39255000  1.0
  C  C318  1  0.62460000  0.17182000  0.43338000  1.0
  C  C319  1  0.66960000  0.20207000  0.39675000  1.0
  C  C320  1  0.93340000  0.33662000  0.28997000  1.0
  C  C321  1  0.02880000  0.38548000  0.31183000  1.0
  C  C322  1  0.13680000  0.42277000  0.28805000  1.0
  C  C323  1  0.22890000  0.46608000  0.30888000  1.0
  C  C324  1  0.21230000  0.47284000  0.35301000  1.0
  C  C325  1  0.10140000  0.43674000  0.37751000  1.0
  C  C326  1  0.01130000  0.39281000  0.35654000  1.0
  C  C327  1  0.07830000  0.44624000  0.42535000  1.0
  C  C328  1  0.49910000  0.35818000  0.35563000  1.0
  C  C329  1  0.54290000  0.38841000  0.39255000  1.0
  C  C330  1  0.37540000  0.32818000  0.43338000  1.0
  C  C331  1  0.33040000  0.29793000  0.39675000  1.0
  C  C332  1  0.06660000  0.16338000  0.28997000  1.0
  C  C333  1  0.97120000  0.11452000  0.31183000  1.0
  C  C334  1  0.86320000  0.07723000  0.28805000  1.0
  C  C335  1  0.77110000  0.03392000  0.30888000  1.0
  C  C336  1  0.78770000  0.02716000  0.35301000  1.0
  C  C337  1  0.89860000  0.06326000  0.37751000  1.0
  C  C338  1  0.98870000  0.10719000  0.35654000  1.0
  C  C339  1  0.92170000  0.05376000  0.42535000  1.0
  C  C340  1  0.99910000  0.85818000  0.85563000  1.0
  C  C341  1  0.04290000  0.88841000  0.89255000  1.0
  C  C342  1  0.87540000  0.82818000  0.93338000  1.0
  C  C343  1  0.83040000  0.79793000  0.89675000  1.0
  C  C344  1  0.56660000  0.66338000  0.78997000  1.0
  C  C345  1  0.47120000  0.61452000  0.81183000  1.0
  C  C346  1  0.36320000  0.57723000  0.78805000  1.0
  C  C347  1  0.27110000  0.53392000  0.80888000  1.0
  C  C348  1  0.28770000  0.52716000  0.85301000  1.0
  C  C349  1  0.39860000  0.56326000  0.87751000  1.0
  C  C350  1  0.48870000  0.60719000  0.85654000  1.0
  C  C351  1  0.42170000  0.55376000  0.92535000  1.0
  N  N352  1  0.10860000  0.81264000  0.35754000  1.0
  N  N353  1  0.01910000  0.87421000  0.43152000  1.0
  N  N354  1  0.60860000  0.31264000  0.85754000  1.0
  N  N355  1  0.51910000  0.37421000  0.93152000  1.0
  N  N356  1  0.39140000  0.18736000  0.85754000  1.0
  N  N357  1  0.48090000  0.12579000  0.93152000  1.0
  N  N358  1  0.89140000  0.68736000  0.35754000  1.0
  N  N359  1  0.98090000  0.62579000  0.43152000  1.0
  N  N360  1  0.89140000  0.31264000  0.14246000  1.0
  N  N361  1  0.98090000  0.37421000  0.06848000  1.0
  N  N362  1  0.39140000  0.81264000  0.64246000  1.0
  N  N363  1  0.48090000  0.87421000  0.56848000  1.0
  N  N364  1  0.60860000  0.68736000  0.64246000  1.0
  N  N365  1  0.51910000  0.62579000  0.56848000  1.0
  N  N366  1  0.10860000  0.18736000  0.14246000  1.0
  N  N367  1  0.01910000  0.12579000  0.06848000  1.0
  N  N368  1  0.89140000  0.18736000  0.64246000  1.0
  N  N369  1  0.98090000  0.12579000  0.56848000  1.0
  N  N370  1  0.39140000  0.68736000  0.14246000  1.0
  N  N371  1  0.48090000  0.62579000  0.06848000  1.0
  N  N372  1  0.60860000  0.81264000  0.14246000  1.0
  N  N373  1  0.51910000  0.87421000  0.06848000  1.0
  N  N374  1  0.10860000  0.31264000  0.64246000  1.0
  N  N375  1  0.01910000  0.37421000  0.56848000  1.0
  N  N376  1  0.10860000  0.68736000  0.85754000  1.0
  N  N377  1  0.01910000  0.62579000  0.93152000  1.0
  N  N378  1  0.60860000  0.18736000  0.35754000  1.0
  N  N379  1  0.51910000  0.12579000  0.43152000  1.0
  N  N380  1  0.39140000  0.31264000  0.35754000  1.0
  N  N381  1  0.48090000  0.37421000  0.43152000  1.0
  N  N382  1  0.89140000  0.81264000  0.85754000  1.0
  N  N383  1  0.98090000  0.87421000  0.93152000  1.0
  O  O384  1  0.34360000  0.69592000  0.31402000  1.0
  O  O385  1  0.45270000  0.66747000  0.24954000  1.0
  O  O386  1  0.47940000  0.58787000  0.44635000  1.0
  O  O387  1  0.65830000  0.51167000  0.44176000  1.0
  O  O388  1  0.84360000  0.19592000  0.81402000  1.0
  O  O389  1  0.95270000  0.16747000  0.74954000  1.0
  O  O390  1  0.97940000  0.08787000  0.94635000  1.0
  O  O391  1  0.15830000  0.01167000  0.94176000  1.0
  O  O392  1  0.15640000  0.30408000  0.81402000  1.0
  O  O393  1  0.04730000  0.33253000  0.74954000  1.0
  O  O394  1  0.02060000  0.41213000  0.94635000  1.0
  O  O395  1  0.84170000  0.48833000  0.94176000  1.0
  O  O396  1  0.65640000  0.80408000  0.31402000  1.0
  O  O397  1  0.54730000  0.83253000  0.24954000  1.0
  O  O398  1  0.52060000  0.91213000  0.44635000  1.0
  O  O399  1  0.34170000  0.98833000  0.44176000  1.0
  O  O400  1  0.65640000  0.19592000  0.18598000  1.0
  O  O401  1  0.54730000  0.16747000  0.25046000  1.0
  O  O402  1  0.52060000  0.08787000  0.05365000  1.0
  O  O403  1  0.34170000  0.01167000  0.05824000  1.0
  O  O404  1  0.15640000  0.69592000  0.68598000  1.0
  O  O405  1  0.04730000  0.66747000  0.75046000  1.0
  O  O406  1  0.02060000  0.58787000  0.55365000  1.0
  O  O407  1  0.84170000  0.51167000  0.55824000  1.0
  O  O408  1  0.84360000  0.80408000  0.68598000  1.0
  O  O409  1  0.95270000  0.83253000  0.75046000  1.0
  O  O410  1  0.97940000  0.91213000  0.55365000  1.0
  O  O411  1  0.15830000  0.98833000  0.55824000  1.0
  O  O412  1  0.34360000  0.30408000  0.18598000  1.0
  O  O413  1  0.45270000  0.33253000  0.25046000  1.0
  O  O414  1  0.47940000  0.41213000  0.05365000  1.0
  O  O415  1  0.65830000  0.48833000  0.05824000  1.0
  O  O416  1  0.65640000  0.30408000  0.68598000  1.0
  O  O417  1  0.54730000  0.33253000  0.75046000  1.0
  O  O418  1  0.52060000  0.41213000  0.55365000  1.0
  O  O419  1  0.34170000  0.48833000  0.55824000  1.0
  O  O420  1  0.15640000  0.80408000  0.18598000  1.0
  O  O421  1  0.04730000  0.83253000  0.25046000  1.0
  O  O422  1  0.02060000  0.91213000  0.05365000  1.0
  O  O423  1  0.84170000  0.98833000  0.05824000  1.0
  O  O424  1  0.84360000  0.69592000  0.18598000  1.0
  O  O425  1  0.95270000  0.66747000  0.25046000  1.0
  O  O426  1  0.97940000  0.58787000  0.05365000  1.0
  O  O427  1  0.15830000  0.51167000  0.05824000  1.0
  O  O428  1  0.34360000  0.19592000  0.68598000  1.0
  O  O429  1  0.45270000  0.16747000  0.75046000  1.0
  O  O430  1  0.47940000  0.08787000  0.55365000  1.0
  O  O431  1  0.65830000  0.01167000  0.55824000  1.0
  O  O432  1  0.34360000  0.80408000  0.81402000  1.0
  O  O433  1  0.45270000  0.83253000  0.74954000  1.0
  O  O434  1  0.47940000  0.91213000  0.94635000  1.0
  O  O435  1  0.65830000  0.98833000  0.94176000  1.0
  O  O436  1  0.84360000  0.30408000  0.31402000  1.0
  O  O437  1  0.95270000  0.33253000  0.24954000  1.0
  O  O438  1  0.97940000  0.41213000  0.44635000  1.0
  O  O439  1  0.15830000  0.48833000  0.44176000  1.0
  O  O440  1  0.15640000  0.19592000  0.31402000  1.0
  O  O441  1  0.04730000  0.16747000  0.24954000  1.0
  O  O442  1  0.02060000  0.08787000  0.44635000  1.0
  O  O443  1  0.84170000  0.01167000  0.44176000  1.0
  O  O444  1  0.65640000  0.69592000  0.81402000  1.0
  O  O445  1  0.54730000  0.66747000  0.74954000  1.0
  O  O446  1  0.52060000  0.58787000  0.94635000  1.0
  O  O447  1  0.34170000  0.51167000  0.94176000  1.0
