# generated using pymatgen
data_ZnH2(CO2)2
_symmetry_space_group_name_H-M   'P 1'
_cell_length_a   9.82740000
_cell_length_b   11.31080000
_cell_length_c   14.50720000
_cell_angle_alpha   91.51770000
_cell_angle_beta   90.00000000
_cell_angle_gamma   90.00000000
_symmetry_Int_Tables_number   1
_chemical_formula_structural   ZnH2(CO2)2
_chemical_formula_sum   'Zn12 H24 C24 O48'
_cell_volume   1611.99308151
_cell_formula_units_Z   12
loop_
 _symmetry_equiv_pos_site_id
 _symmetry_equiv_pos_as_xyz
  1  'x, y, z'
loop_
 _atom_site_type_symbol
 _atom_site_label
 _atom_site_symmetry_multiplicity
 _atom_site_fract_x
 _atom_site_fract_y
 _atom_site_fract_z
 _atom_site_occupancy
  Zn  Zn0  1  0.91929000  0.75787000  0.13250000  1.0
  Zn  Zn1  1  0.10555000  0.74140000  0.31324000  1.0
  Zn  Zn2  1  0.41929000  0.74213000  0.36750000  1.0
  Zn  Zn3  1  0.60555000  0.75860000  0.18676000  1.0
  Zn  Zn4  1  0.08071000  0.24213000  0.86750000  1.0
  Zn  Zn5  1  0.89445000  0.25860000  0.68676000  1.0
  Zn  Zn6  1  0.58071000  0.25787000  0.63250000  1.0
  Zn  Zn7  1  0.39445000  0.24140000  0.81324000  1.0
  Zn  Zn8  1  0.00000000  0.50000000  0.00000000  1.0
  Zn  Zn9  1  0.50000000  0.00000000  0.50000000  1.0
  Zn  Zn10  1  0.00000000  0.00000000  0.00000000  1.0
  Zn  Zn11  1  0.50000000  0.50000000  0.50000000  1.0
  H  H12  1  0.75180000  0.86280000  0.36690000  1.0
  H  H13  1  0.03590000  0.47810000  0.26580000  1.0
  H  H14  1  0.61580000  0.55720000  0.04380000  1.0
  H  H15  1  0.18460000  0.98610000  0.23400000  1.0
  H  H16  1  0.15470000  0.69610000  0.92760000  1.0
  H  H17  1  0.70110000  0.99060000  0.00880000  1.0
  H  H18  1  0.25180000  0.63720000  0.13310000  1.0
  H  H19  1  0.53590000  0.02190000  0.23420000  1.0
  H  H20  1  0.11580000  0.94280000  0.45620000  1.0
  H  H21  1  0.68460000  0.51390000  0.26600000  1.0
  H  H22  1  0.65470000  0.80390000  0.57240000  1.0
  H  H23  1  0.20110000  0.50940000  0.49120000  1.0
  H  H24  1  0.24820000  0.13720000  0.63310000  1.0
  H  H25  1  0.96410000  0.52190000  0.73420000  1.0
  H  H26  1  0.38420000  0.44280000  0.95620000  1.0
  H  H27  1  0.81540000  0.01390000  0.76600000  1.0
  H  H28  1  0.84530000  0.30390000  0.07240000  1.0
  H  H29  1  0.29890000  0.00940000  0.99120000  1.0
  H  H30  1  0.74820000  0.36280000  0.86690000  1.0
  H  H31  1  0.46410000  0.97810000  0.76580000  1.0
  H  H32  1  0.88420000  0.05720000  0.54380000  1.0
  H  H33  1  0.31540000  0.48610000  0.73400000  1.0
  H  H34  1  0.34530000  0.19610000  0.42760000  1.0
  H  H35  1  0.79890000  0.49060000  0.50880000  1.0
  C  C36  1  0.82390000  0.83210000  0.32990000  1.0
  C  C37  1  0.01480000  0.51960000  0.21160000  1.0
  C  C38  1  0.71010000  0.57320000  0.05100000  1.0
  C  C39  1  0.12500000  0.95690000  0.18710000  1.0
  C  C40  1  0.10190000  0.74170000  0.97040000  1.0
  C  C41  1  0.71880000  0.92960000  0.05100000  1.0
  C  C42  1  0.32390000  0.66790000  0.17010000  1.0
  C  C43  1  0.51480000  0.98040000  0.28840000  1.0
  C  C44  1  0.21010000  0.92680000  0.44900000  1.0
  C  C45  1  0.62500000  0.54310000  0.31290000  1.0
  C  C46  1  0.60190000  0.75830000  0.52960000  1.0
  C  C47  1  0.21880000  0.57040000  0.44900000  1.0
  C  C48  1  0.17610000  0.16790000  0.67010000  1.0
  C  C49  1  0.98520000  0.48040000  0.78840000  1.0
  C  C50  1  0.28990000  0.42680000  0.94900000  1.0
  C  C51  1  0.87500000  0.04310000  0.81290000  1.0
  C  C52  1  0.89810000  0.25830000  0.02960000  1.0
  C  C53  1  0.28120000  0.07040000  0.94900000  1.0
  C  C54  1  0.67610000  0.33210000  0.82990000  1.0
  C  C55  1  0.48520000  0.01960000  0.71160000  1.0
  C  C56  1  0.78990000  0.07320000  0.55100000  1.0
  C  C57  1  0.37500000  0.45690000  0.68710000  1.0
  C  C58  1  0.39810000  0.24170000  0.47040000  1.0
  C  C59  1  0.78120000  0.42960000  0.55100000  1.0
  O  O60  1  0.79700000  0.80940000  0.24560000  1.0
  O  O61  1  0.93620000  0.81790000  0.36890000  1.0
  O  O62  1  0.00340000  0.63090000  0.21960000  1.0
  O  O63  1  0.00080000  0.45970000  0.13920000  1.0
  O  O64  1  0.74230000  0.65260000  0.11020000  1.0
  O  O65  1  0.78910000  0.51440000  0.00160000  1.0
  O  O66  1  0.08060000  0.85150000  0.19580000  1.0
  O  O67  1  0.09860000  0.02510000  0.12410000  1.0
  O  O68  1  0.02250000  0.68450000  0.02340000  1.0
  O  O69  1  0.11660000  0.84990000  0.96950000  1.0
  O  O70  1  0.84320000  0.89780000  0.05980000  1.0
  O  O71  1  0.61940000  0.88860000  0.09180000  1.0
  O  O72  1  0.29700000  0.69060000  0.25440000  1.0
  O  O73  1  0.43620000  0.68210000  0.13110000  1.0
  O  O74  1  0.50340000  0.86910000  0.28040000  1.0
  O  O75  1  0.50080000  0.04030000  0.36080000  1.0
  O  O76  1  0.24230000  0.84740000  0.38980000  1.0
  O  O77  1  0.28910000  0.98560000  0.49840000  1.0
  O  O78  1  0.58060000  0.64850000  0.30420000  1.0
  O  O79  1  0.59860000  0.47490000  0.37590000  1.0
  O  O80  1  0.52250000  0.81550000  0.47660000  1.0
  O  O81  1  0.61660000  0.65010000  0.53050000  1.0
  O  O82  1  0.34320000  0.60220000  0.44020000  1.0
  O  O83  1  0.11940000  0.61140000  0.40820000  1.0
  O  O84  1  0.20300000  0.19060000  0.75440000  1.0
  O  O85  1  0.06380000  0.18210000  0.63110000  1.0
  O  O86  1  0.99660000  0.36910000  0.78040000  1.0
  O  O87  1  0.99920000  0.54030000  0.86080000  1.0
  O  O88  1  0.25770000  0.34740000  0.88980000  1.0
  O  O89  1  0.21090000  0.48560000  0.99840000  1.0
  O  O90  1  0.91940000  0.14850000  0.80420000  1.0
  O  O91  1  0.90140000  0.97490000  0.87590000  1.0
  O  O92  1  0.97750000  0.31550000  0.97660000  1.0
  O  O93  1  0.88340000  0.15010000  0.03050000  1.0
  O  O94  1  0.15680000  0.10220000  0.94020000  1.0
  O  O95  1  0.38060000  0.11140000  0.90820000  1.0
  O  O96  1  0.70300000  0.30940000  0.74560000  1.0
  O  O97  1  0.56380000  0.31790000  0.86890000  1.0
  O  O98  1  0.49660000  0.13090000  0.71960000  1.0
  O  O99  1  0.49920000  0.95970000  0.63920000  1.0
  O  O100  1  0.75770000  0.15260000  0.61020000  1.0
  O  O101  1  0.71090000  0.01440000  0.50160000  1.0
  O  O102  1  0.41940000  0.35150000  0.69580000  1.0
  O  O103  1  0.40140000  0.52510000  0.62410000  1.0
  O  O104  1  0.47750000  0.18450000  0.52340000  1.0
  O  O105  1  0.38340000  0.34990000  0.46950000  1.0
  O  O106  1  0.65680000  0.39780000  0.55980000  1.0
  O  O107  1  0.88060000  0.38860000  0.59180000  1.0
