# generated using pymatgen
data_ZnH2(CO2)2
_symmetry_space_group_name_H-M   'P 1'
_cell_length_a   9.84860000
_cell_length_b   11.29560000
_cell_length_c   14.74930000
_cell_angle_alpha   91.30940000
_cell_angle_beta   90.00000000
_cell_angle_gamma   90.00000000
_symmetry_Int_Tables_number   1
_chemical_formula_structural   ZnH2(CO2)2
_chemical_formula_sum   'Zn12 H24 C24 O48'
_cell_volume   1640.36990327
_cell_formula_units_Z   12
loop_
 _symmetry_equiv_pos_site_id
 _symmetry_equiv_pos_as_xyz
  1  'x, y, z'
loop_
 _atom_site_type_symbol
 _atom_site_label
 _atom_site_symmetry_multiplicity
 _atom_site_fract_x
 _atom_site_fract_y
 _atom_site_fract_z
 _atom_site_occupancy
  Zn  Zn0  1  0.92332000  0.75686000  0.13235000  1.0
  Zn  Zn1  1  0.11240000  0.74124000  0.30876000  1.0
  Zn  Zn2  1  0.42332000  0.74314000  0.36765000  1.0
  Zn  Zn3  1  0.61240000  0.75876000  0.19124000  1.0
  Zn  Zn4  1  0.07668000  0.24314000  0.86765000  1.0
  Zn  Zn5  1  0.88760000  0.25876000  0.69124000  1.0
  Zn  Zn6  1  0.57668000  0.25686000  0.63235000  1.0
  Zn  Zn7  1  0.38760000  0.24124000  0.80876000  1.0
  Zn  Zn8  1  0.00000000  0.50000000  0.00000000  1.0
  Zn  Zn9  1  0.50000000  0.00000000  0.50000000  1.0
  Zn  Zn10  1  0.00000000  0.00000000  0.00000000  1.0
  Zn  Zn11  1  0.50000000  0.50000000  0.50000000  1.0
  H  H12  1  0.75760000  0.84540000  0.36980000  1.0
  H  H13  1  0.05570000  0.47750000  0.25890000  1.0
  H  H14  1  0.61730000  0.55340000  0.05160000  1.0
  H  H15  1  0.19890000  0.98130000  0.22610000  1.0
  H  H16  1  0.15420000  0.69530000  0.92730000  1.0
  H  H17  1  0.70740000  0.00370000  0.02510000  1.0
  H  H18  1  0.25760000  0.65460000  0.13020000  1.0
  H  H19  1  0.55570000  0.02250000  0.24110000  1.0
  H  H20  1  0.11730000  0.94660000  0.44840000  1.0
  H  H21  1  0.69890000  0.51870000  0.27390000  1.0
  H  H22  1  0.65420000  0.80470000  0.57270000  1.0
  H  H23  1  0.20740000  0.49630000  0.47490000  1.0
  H  H24  1  0.24240000  0.15460000  0.63020000  1.0
  H  H25  1  0.94430000  0.52250000  0.74110000  1.0
  H  H26  1  0.38270000  0.44660000  0.94840000  1.0
  H  H27  1  0.80110000  0.01870000  0.77390000  1.0
  H  H28  1  0.84580000  0.30470000  0.07270000  1.0
  H  H29  1  0.29260000  0.99630000  0.97490000  1.0
  H  H30  1  0.74240000  0.34540000  0.86980000  1.0
  H  H31  1  0.44430000  0.97750000  0.75890000  1.0
  H  H32  1  0.88270000  0.05340000  0.55160000  1.0
  H  H33  1  0.30110000  0.48130000  0.72610000  1.0
  H  H34  1  0.34580000  0.19530000  0.42730000  1.0
  H  H35  1  0.79260000  0.50370000  0.52510000  1.0
  C  C36  1  0.83040000  0.82037000  0.33177000  1.0
  C  C37  1  0.02850000  0.51835000  0.20635000  1.0
  C  C38  1  0.71120000  0.57176000  0.05606000  1.0
  C  C39  1  0.13640000  0.95338000  0.18148000  1.0
  C  C40  1  0.09930000  0.74174000  0.96734000  1.0
  C  C41  1  0.72450000  0.93805000  0.06255000  1.0
  C  C42  1  0.33040000  0.67963000  0.16823000  1.0
  C  C43  1  0.52850000  0.98165000  0.29365000  1.0
  C  C44  1  0.21120000  0.92824000  0.44394000  1.0
  C  C45  1  0.63640000  0.54662000  0.31852000  1.0
  C  C46  1  0.59930000  0.75826000  0.53266000  1.0
  C  C47  1  0.22450000  0.56195000  0.43745000  1.0
  C  C48  1  0.16960000  0.17963000  0.66823000  1.0
  C  C49  1  0.97150000  0.48165000  0.79365000  1.0
  C  C50  1  0.28880000  0.42824000  0.94394000  1.0
  C  C51  1  0.86360000  0.04662000  0.81852000  1.0
  C  C52  1  0.90070000  0.25826000  0.03266000  1.0
  C  C53  1  0.27550000  0.06195000  0.93745000  1.0
  C  C54  1  0.66960000  0.32037000  0.83177000  1.0
  C  C55  1  0.47150000  0.01835000  0.70635000  1.0
  C  C56  1  0.78880000  0.07176000  0.55606000  1.0
  C  C57  1  0.36360000  0.45338000  0.68148000  1.0
  C  C58  1  0.40070000  0.24174000  0.46734000  1.0
  C  C59  1  0.77550000  0.43805000  0.56255000  1.0
  O  O60  1  0.80387000  0.80437000  0.24775000  1.0
  O  O61  1  0.94288000  0.80628000  0.36872000  1.0
  O  O62  1  0.01248000  0.62906000  0.21531000  1.0
  O  O63  1  0.01243000  0.45779000  0.13632000  1.0
  O  O64  1  0.74534000  0.65521000  0.11206000  1.0
  O  O65  1  0.78977000  0.51304000  0.00724000  1.0
  O  O66  1  0.08282000  0.85242000  0.19456000  1.0
  O  O67  1  0.11556000  0.01833000  0.11700000  1.0
  O  O68  1  0.02452000  0.68519000  0.02327000  1.0
  O  O69  1  0.10695000  0.84949000  0.96044000  1.0
  O  O70  1  0.84735000  0.90123000  0.06596000  1.0
  O  O71  1  0.62565000  0.89667000  0.10323000  1.0
  O  O72  1  0.30387000  0.69563000  0.25225000  1.0
  O  O73  1  0.44288000  0.69372000  0.13128000  1.0
  O  O74  1  0.51248000  0.87094000  0.28469000  1.0
  O  O75  1  0.51243000  0.04221000  0.36368000  1.0
  O  O76  1  0.24534000  0.84479000  0.38794000  1.0
  O  O77  1  0.28977000  0.98696000  0.49276000  1.0
  O  O78  1  0.58282000  0.64758000  0.30544000  1.0
  O  O79  1  0.61556000  0.48167000  0.38300000  1.0
  O  O80  1  0.52452000  0.81481000  0.47673000  1.0
  O  O81  1  0.60695000  0.65051000  0.53956000  1.0
  O  O82  1  0.34735000  0.59877000  0.43404000  1.0
  O  O83  1  0.12565000  0.60333000  0.39677000  1.0
  O  O84  1  0.19613000  0.19563000  0.75225000  1.0
  O  O85  1  0.05712000  0.19372000  0.63128000  1.0
  O  O86  1  0.98752000  0.37094000  0.78469000  1.0
  O  O87  1  0.98757000  0.54221000  0.86368000  1.0
  O  O88  1  0.25466000  0.34479000  0.88794000  1.0
  O  O89  1  0.21023000  0.48696000  0.99276000  1.0
  O  O90  1  0.91718000  0.14758000  0.80544000  1.0
  O  O91  1  0.88444000  0.98167000  0.88300000  1.0
  O  O92  1  0.97548000  0.31481000  0.97673000  1.0
  O  O93  1  0.89305000  0.15051000  0.03956000  1.0
  O  O94  1  0.15265000  0.09877000  0.93404000  1.0
  O  O95  1  0.37435000  0.10333000  0.89677000  1.0
  O  O96  1  0.69613000  0.30437000  0.74775000  1.0
  O  O97  1  0.55712000  0.30628000  0.86872000  1.0
  O  O98  1  0.48752000  0.12906000  0.71531000  1.0
  O  O99  1  0.48757000  0.95779000  0.63632000  1.0
  O  O100  1  0.75466000  0.15521000  0.61206000  1.0
  O  O101  1  0.71023000  0.01304000  0.50724000  1.0
  O  O102  1  0.41718000  0.35242000  0.69456000  1.0
  O  O103  1  0.38444000  0.51833000  0.61700000  1.0
  O  O104  1  0.47548000  0.18519000  0.52327000  1.0
  O  O105  1  0.39305000  0.34949000  0.46044000  1.0
  O  O106  1  0.65265000  0.40123000  0.56596000  1.0
  O  O107  1  0.87435000  0.39667000  0.60323000  1.0
