# generated using pymatgen
data_ZnH2(CO2)2
_symmetry_space_group_name_H-M   'P 1'
_cell_length_a   9.66820000
_cell_length_b   11.21510000
_cell_length_c   14.43620000
_cell_angle_alpha   91.25890000
_cell_angle_beta   90.00000000
_cell_angle_gamma   90.00000000
_symmetry_Int_Tables_number   1
_chemical_formula_structural   ZnH2(CO2)2
_chemical_formula_sum   'Zn12 H24 C24 O48'
_cell_volume   1564.93688363
_cell_formula_units_Z   12
loop_
 _symmetry_equiv_pos_site_id
 _symmetry_equiv_pos_as_xyz
  1  'x, y, z'
loop_
 _atom_site_type_symbol
 _atom_site_label
 _atom_site_symmetry_multiplicity
 _atom_site_fract_x
 _atom_site_fract_y
 _atom_site_fract_z
 _atom_site_occupancy
  Zn  Zn0  1  0.91715000  0.75658000  0.13099000  1.0
  Zn  Zn1  1  0.09961000  0.73933000  0.31541000  1.0
  Zn  Zn2  1  0.41715000  0.74342000  0.36901000  1.0
  Zn  Zn3  1  0.59961000  0.76067000  0.18459000  1.0
  Zn  Zn4  1  0.08285000  0.24342000  0.86901000  1.0
  Zn  Zn5  1  0.90039000  0.26067000  0.68459000  1.0
  Zn  Zn6  1  0.58285000  0.25658000  0.63099000  1.0
  Zn  Zn7  1  0.40039000  0.23933000  0.81541000  1.0
  Zn  Zn8  1  0.00000000  0.50000000  0.00000000  1.0
  Zn  Zn9  1  0.50000000  0.00000000  0.50000000  1.0
  Zn  Zn10  1  0.00000000  0.00000000  0.00000000  1.0
  Zn  Zn11  1  0.50000000  0.50000000  0.50000000  1.0
  H  H12  1  0.74370000  0.86730000  0.36420000  1.0
  H  H13  1  0.01940000  0.47170000  0.26820000  1.0
  H  H14  1  0.61060000  0.56360000  0.03390000  1.0
  H  H15  1  0.18420000  0.98470000  0.23730000  1.0
  H  H16  1  0.18080000  0.69660000  0.93860000  1.0
  H  H17  1  0.69650000  0.99390000  0.00590000  1.0
  H  H18  1  0.24370000  0.63270000  0.13580000  1.0
  H  H19  1  0.51940000  0.02830000  0.23180000  1.0
  H  H20  1  0.11060000  0.93640000  0.46610000  1.0
  H  H21  1  0.68420000  0.51530000  0.26270000  1.0
  H  H22  1  0.68080000  0.80340000  0.56140000  1.0
  H  H23  1  0.19650000  0.50610000  0.49410000  1.0
  H  H24  1  0.25630000  0.13270000  0.63580000  1.0
  H  H25  1  0.98060000  0.52830000  0.73180000  1.0
  H  H26  1  0.38940000  0.43640000  0.96610000  1.0
  H  H27  1  0.81580000  0.01530000  0.76270000  1.0
  H  H28  1  0.81920000  0.30340000  0.06140000  1.0
  H  H29  1  0.30350000  0.00610000  0.99410000  1.0
  H  H30  1  0.75630000  0.36730000  0.86420000  1.0
  H  H31  1  0.48060000  0.97170000  0.76820000  1.0
  H  H32  1  0.88940000  0.06360000  0.53390000  1.0
  H  H33  1  0.31580000  0.48470000  0.73730000  1.0
  H  H34  1  0.31920000  0.19660000  0.43860000  1.0
  H  H35  1  0.80350000  0.49390000  0.50590000  1.0
  C  C36  1  0.81770000  0.83570000  0.32800000  1.0
  C  C37  1  0.00230000  0.51460000  0.21340000  1.0
  C  C38  1  0.70620000  0.57870000  0.04360000  1.0
  C  C39  1  0.12590000  0.95600000  0.18880000  1.0
  C  C40  1  0.11550000  0.74180000  0.97380000  1.0
  C  C41  1  0.71310000  0.93130000  0.04770000  1.0
  C  C42  1  0.31770000  0.66430000  0.17200000  1.0
  C  C43  1  0.50230000  0.98540000  0.28660000  1.0
  C  C44  1  0.20620000  0.92130000  0.45640000  1.0
  C  C45  1  0.62590000  0.54400000  0.31120000  1.0
  C  C46  1  0.61550000  0.75820000  0.52620000  1.0
  C  C47  1  0.21310000  0.56870000  0.45230000  1.0
  C  C48  1  0.18230000  0.16430000  0.67200000  1.0
  C  C49  1  0.99770000  0.48540000  0.78660000  1.0
  C  C50  1  0.29380000  0.42130000  0.95640000  1.0
  C  C51  1  0.87410000  0.04400000  0.81120000  1.0
  C  C52  1  0.88450000  0.25820000  0.02620000  1.0
  C  C53  1  0.28690000  0.06870000  0.95230000  1.0
  C  C54  1  0.68230000  0.33570000  0.82800000  1.0
  C  C55  1  0.49770000  0.01460000  0.71340000  1.0
  C  C56  1  0.79380000  0.07870000  0.54360000  1.0
  C  C57  1  0.37410000  0.45600000  0.68880000  1.0
  C  C58  1  0.38450000  0.24180000  0.47380000  1.0
  C  C59  1  0.78690000  0.43130000  0.54770000  1.0
  O  O60  1  0.79270000  0.81421000  0.24281000  1.0
  O  O61  1  0.92950000  0.81942000  0.36892000  1.0
  O  O62  1  0.99490000  0.62772000  0.22192000  1.0
  O  O63  1  0.98950000  0.45506000  0.14096000  1.0
  O  O64  1  0.73730000  0.65293000  0.10843000  1.0
  O  O65  1  0.78800000  0.52449000  0.99219000  1.0
  O  O66  1  0.07970000  0.84933000  0.19593000  1.0
  O  O67  1  0.10240000  0.02475000  0.12555000  1.0
  O  O68  1  0.03080000  0.68339000  0.02539000  1.0
  O  O69  1  0.11870000  0.85055000  0.96655000  1.0
  O  O70  1  0.83910000  0.89754000  0.05714000  1.0
  O  O71  1  0.61110000  0.88986000  0.08786000  1.0
  O  O72  1  0.29270000  0.68579000  0.25719000  1.0
  O  O73  1  0.42950000  0.68058000  0.13108000  1.0
  O  O74  1  0.49490000  0.87228000  0.27808000  1.0
  O  O75  1  0.48950000  0.04494000  0.35904000  1.0
  O  O76  1  0.23730000  0.84707000  0.39157000  1.0
  O  O77  1  0.28800000  0.97551000  0.50781000  1.0
  O  O78  1  0.57970000  0.65067000  0.30407000  1.0
  O  O79  1  0.60240000  0.47525000  0.37445000  1.0
  O  O80  1  0.53080000  0.81661000  0.47461000  1.0
  O  O81  1  0.61870000  0.64945000  0.53345000  1.0
  O  O82  1  0.33910000  0.60246000  0.44286000  1.0
  O  O83  1  0.11110000  0.61014000  0.41214000  1.0
  O  O84  1  0.20730000  0.18579000  0.75719000  1.0
  O  O85  1  0.07050000  0.18058000  0.63108000  1.0
  O  O86  1  0.00510000  0.37228000  0.77808000  1.0
  O  O87  1  0.01050000  0.54494000  0.85904000  1.0
  O  O88  1  0.26270000  0.34707000  0.89157000  1.0
  O  O89  1  0.21200000  0.47551000  0.00781000  1.0
  O  O90  1  0.92030000  0.15067000  0.80407000  1.0
  O  O91  1  0.89760000  0.97525000  0.87445000  1.0
  O  O92  1  0.96920000  0.31661000  0.97461000  1.0
  O  O93  1  0.88130000  0.14945000  0.03345000  1.0
  O  O94  1  0.16090000  0.10246000  0.94286000  1.0
  O  O95  1  0.38890000  0.11014000  0.91214000  1.0
  O  O96  1  0.70730000  0.31421000  0.74281000  1.0
  O  O97  1  0.57050000  0.31942000  0.86892000  1.0
  O  O98  1  0.50510000  0.12772000  0.72192000  1.0
  O  O99  1  0.51050000  0.95506000  0.64096000  1.0
  O  O100  1  0.76270000  0.15293000  0.60843000  1.0
  O  O101  1  0.71200000  0.02449000  0.49219000  1.0
  O  O102  1  0.42030000  0.34933000  0.69593000  1.0
  O  O103  1  0.39760000  0.52475000  0.62555000  1.0
  O  O104  1  0.46920000  0.18339000  0.52539000  1.0
  O  O105  1  0.38130000  0.35055000  0.46655000  1.0
  O  O106  1  0.66090000  0.39754000  0.55714000  1.0
  O  O107  1  0.88890000  0.38986000  0.58786000  1.0
