# generated using pymatgen
data_ZnH2(CO2)2
_symmetry_space_group_name_H-M   'P 1'
_cell_length_a   9.82500000
_cell_length_b   11.29580000
_cell_length_c   14.73290000
_cell_angle_alpha   91.49430000
_cell_angle_beta   90.00000000
_cell_angle_gamma   90.00000000
_symmetry_Int_Tables_number   1
_chemical_formula_structural   ZnH2(CO2)2
_chemical_formula_sum   'Zn12 H24 C24 O48'
_cell_volume   1634.51938756
_cell_formula_units_Z   12
loop_
 _symmetry_equiv_pos_site_id
 _symmetry_equiv_pos_as_xyz
  1  'x, y, z'
loop_
 _atom_site_type_symbol
 _atom_site_label
 _atom_site_symmetry_multiplicity
 _atom_site_fract_x
 _atom_site_fract_y
 _atom_site_fract_z
 _atom_site_occupancy
  Zn  Zn0  1  0.92633000  0.75695000  0.13171000  1.0
  Zn  Zn1  1  0.11504000  0.74172000  0.30792000  1.0
  Zn  Zn2  1  0.42633000  0.74305000  0.36829000  1.0
  Zn  Zn3  1  0.61504000  0.75828000  0.19208000  1.0
  Zn  Zn4  1  0.07367000  0.24305000  0.86829000  1.0
  Zn  Zn5  1  0.88496000  0.25828000  0.69208000  1.0
  Zn  Zn6  1  0.57367000  0.25695000  0.63171000  1.0
  Zn  Zn7  1  0.38496000  0.24172000  0.80792000  1.0
  Zn  Zn8  1  0.00000000  0.50000000  0.00000000  1.0
  Zn  Zn9  1  0.50000000  0.00000000  0.50000000  1.0
  Zn  Zn10  1  0.00000000  0.00000000  0.00000000  1.0
  Zn  Zn11  1  0.50000000  0.50000000  0.50000000  1.0
  H  H12  1  0.76270000  0.85550000  0.36820000  1.0
  H  H13  1  0.04980000  0.47810000  0.25990000  1.0
  H  H14  1  0.61810000  0.56080000  0.04620000  1.0
  H  H15  1  0.20740000  0.97910000  0.22280000  1.0
  H  H16  1  0.16360000  0.69580000  0.92880000  1.0
  H  H17  1  0.70650000  0.99810000  0.02180000  1.0
  H  H18  1  0.26270000  0.64450000  0.13180000  1.0
  H  H19  1  0.54980000  0.02190000  0.24010000  1.0
  H  H20  1  0.11810000  0.93920000  0.45380000  1.0
  H  H21  1  0.70740000  0.52090000  0.27720000  1.0
  H  H22  1  0.66360000  0.80420000  0.57120000  1.0
  H  H23  1  0.20650000  0.50190000  0.47820000  1.0
  H  H24  1  0.23730000  0.14450000  0.63180000  1.0
  H  H25  1  0.95020000  0.52190000  0.74010000  1.0
  H  H26  1  0.38190000  0.43920000  0.95380000  1.0
  H  H27  1  0.79260000  0.02090000  0.77720000  1.0
  H  H28  1  0.83640000  0.30420000  0.07120000  1.0
  H  H29  1  0.29350000  0.00190000  0.97820000  1.0
  H  H30  1  0.73730000  0.35550000  0.86820000  1.0
  H  H31  1  0.45020000  0.97810000  0.75990000  1.0
  H  H32  1  0.88190000  0.06080000  0.54620000  1.0
  H  H33  1  0.29260000  0.47910000  0.72280000  1.0
  H  H34  1  0.33640000  0.19580000  0.42880000  1.0
  H  H35  1  0.79350000  0.49810000  0.52180000  1.0
  C  C36  1  0.83460000  0.82650000  0.33080000  1.0
  C  C37  1  0.02360000  0.51900000  0.20710000  1.0
  C  C38  1  0.71270000  0.57670000  0.05210000  1.0
  C  C39  1  0.14190000  0.95220000  0.17950000  1.0
  C  C40  1  0.10570000  0.74160000  0.96760000  1.0
  C  C41  1  0.72480000  0.93430000  0.06070000  1.0
  C  C42  1  0.33460000  0.67350000  0.16920000  1.0
  C  C43  1  0.52360000  0.98100000  0.29290000  1.0
  C  C44  1  0.21270000  0.92330000  0.44790000  1.0
  C  C45  1  0.64190000  0.54780000  0.32050000  1.0
  C  C46  1  0.60570000  0.75840000  0.53240000  1.0
  C  C47  1  0.22480000  0.56570000  0.43930000  1.0
  C  C48  1  0.16540000  0.17350000  0.66920000  1.0
  C  C49  1  0.97640000  0.48100000  0.79290000  1.0
  C  C50  1  0.28730000  0.42330000  0.94790000  1.0
  C  C51  1  0.85810000  0.04780000  0.82050000  1.0
  C  C52  1  0.89430000  0.25840000  0.03240000  1.0
  C  C53  1  0.27520000  0.06570000  0.93930000  1.0
  C  C54  1  0.66540000  0.32650000  0.83080000  1.0
  C  C55  1  0.47640000  0.01900000  0.70710000  1.0
  C  C56  1  0.78730000  0.07670000  0.55210000  1.0
  C  C57  1  0.35810000  0.45220000  0.67950000  1.0
  C  C58  1  0.39430000  0.24160000  0.46760000  1.0
  C  C59  1  0.77520000  0.43430000  0.56070000  1.0
  O  O60  1  0.80720000  0.80729000  0.24739000  1.0
  O  O61  1  0.94650000  0.81079000  0.36809000  1.0
  O  O62  1  0.01280000  0.63001000  0.21531000  1.0
  O  O63  1  0.00360000  0.45780000  0.13760000  1.0
  O  O64  1  0.74830000  0.65500000  0.11210000  1.0
  O  O65  1  0.79080000  0.51993000  0.00093000  1.0
  O  O66  1  0.08730000  0.85116000  0.19316000  1.0
  O  O67  1  0.11850000  0.01780000  0.11630000  1.0
  O  O68  1  0.02930000  0.68501000  0.02351000  1.0
  O  O69  1  0.10940000  0.84928000  0.96078000  1.0
  O  O70  1  0.84850000  0.89969000  0.06489000  1.0
  O  O71  1  0.62660000  0.89376000  0.10186000  1.0
  O  O72  1  0.30720000  0.69271000  0.25261000  1.0
  O  O73  1  0.44650000  0.68921000  0.13191000  1.0
  O  O74  1  0.51280000  0.86999000  0.28469000  1.0
  O  O75  1  0.50360000  0.04220000  0.36240000  1.0
  O  O76  1  0.24830000  0.84500000  0.38790000  1.0
  O  O77  1  0.29080000  0.98007000  0.49907000  1.0
  O  O78  1  0.58730000  0.64884000  0.30684000  1.0
  O  O79  1  0.61850000  0.48220000  0.38370000  1.0
  O  O80  1  0.52930000  0.81499000  0.47649000  1.0
  O  O81  1  0.60940000  0.65072000  0.53922000  1.0
  O  O82  1  0.34850000  0.60031000  0.43511000  1.0
  O  O83  1  0.12660000  0.60624000  0.39814000  1.0
  O  O84  1  0.19280000  0.19271000  0.75261000  1.0
  O  O85  1  0.05350000  0.18921000  0.63191000  1.0
  O  O86  1  0.98720000  0.36999000  0.78469000  1.0
  O  O87  1  0.99640000  0.54220000  0.86240000  1.0
  O  O88  1  0.25170000  0.34500000  0.88790000  1.0
  O  O89  1  0.20920000  0.48007000  0.99907000  1.0
  O  O90  1  0.91270000  0.14884000  0.80684000  1.0
  O  O91  1  0.88150000  0.98220000  0.88370000  1.0
  O  O92  1  0.97070000  0.31499000  0.97649000  1.0
  O  O93  1  0.89060000  0.15072000  0.03922000  1.0
  O  O94  1  0.15150000  0.10031000  0.93511000  1.0
  O  O95  1  0.37340000  0.10624000  0.89814000  1.0
  O  O96  1  0.69280000  0.30729000  0.74739000  1.0
  O  O97  1  0.55350000  0.31079000  0.86809000  1.0
  O  O98  1  0.48720000  0.13001000  0.71531000  1.0
  O  O99  1  0.49640000  0.95780000  0.63760000  1.0
  O  O100  1  0.75170000  0.15500000  0.61210000  1.0
  O  O101  1  0.70920000  0.01993000  0.50093000  1.0
  O  O102  1  0.41270000  0.35116000  0.69316000  1.0
  O  O103  1  0.38150000  0.51780000  0.61630000  1.0
  O  O104  1  0.47070000  0.18501000  0.52351000  1.0
  O  O105  1  0.39060000  0.34928000  0.46078000  1.0
  O  O106  1  0.65150000  0.39969000  0.56489000  1.0
  O  O107  1  0.87340000  0.39376000  0.60186000  1.0
