# generated using pymatgen
data_EuCuH8C14(NO4)2
_symmetry_space_group_name_H-M   'P 1'
_cell_length_a   9.20300000
_cell_length_b   11.59970000
_cell_length_c   17.06300000
_cell_angle_alpha   104.60100000
_cell_angle_beta   90.00000000
_cell_angle_gamma   113.37100000
_symmetry_Int_Tables_number   1
_chemical_formula_structural   EuCuH8C14(NO4)2
_chemical_formula_sum   'Eu4 Cu4 H32 C56 N8 O32'
_cell_volume   1607.78044143
_cell_formula_units_Z   4
loop_
 _symmetry_equiv_pos_site_id
 _symmetry_equiv_pos_as_xyz
  1  'x, y, z'
loop_
 _atom_site_type_symbol
 _atom_site_label
 _atom_site_symmetry_multiplicity
 _atom_site_fract_x
 _atom_site_fract_y
 _atom_site_fract_z
 _atom_site_occupancy
  Eu  Eu0  1  0.82791000  0.02615000  0.57317000  1.0
  Eu  Eu1  1  0.80176000  0.97385000  0.92683000  1.0
  Eu  Eu2  1  0.17209000  0.97385000  0.42683000  1.0
  Eu  Eu3  1  0.19824000  0.02615000  0.07317000  1.0
  Cu  Cu4  1  0.59057000  0.32504000  0.63067000  1.0
  Cu  Cu5  1  0.26553000  0.67496000  0.86933000  1.0
  Cu  Cu6  1  0.40943000  0.67496000  0.36933000  1.0
  Cu  Cu7  1  0.73447000  0.32504000  0.13067000  1.0
  H  H8  1  0.00700000  0.30040000  0.19320000  1.0
  H  H9  1  0.58650000  0.22460000  0.26400000  1.0
  H  H10  1  0.63700000  0.12860000  0.35670000  1.0
  H  H11  1  0.06540000  0.19760000  0.27990000  1.0
  H  H12  1  0.41760000  0.43940000  0.37600000  1.0
  H  H13  1  0.22060000  0.64660000  0.50950000  1.0
  H  H14  1  0.31340000  0.27920000  0.44080000  1.0
  H  H15  1  0.10910000  0.49040000  0.57790000  1.0
  H  H16  1  0.70660000  0.69960000  0.30680000  1.0
  H  H17  1  0.36190000  0.77540000  0.23600000  1.0
  H  H18  1  0.50840000  0.87140000  0.14330000  1.0
  H  H19  1  0.86780000  0.80240000  0.22010000  1.0
  H  H20  1  0.97820000  0.56060000  0.12400000  1.0
  H  H21  1  0.57400000  0.35340000  0.99050000  1.0
  H  H22  1  0.03420000  0.72080000  0.05920000  1.0
  H  H23  1  0.61870000  0.50960000  0.92210000  1.0
  H  H24  1  0.99300000  0.69960000  0.80680000  1.0
  H  H25  1  0.41350000  0.77540000  0.73600000  1.0
  H  H26  1  0.36300000  0.87140000  0.64330000  1.0
  H  H27  1  0.93460000  0.80240000  0.72010000  1.0
  H  H28  1  0.58240000  0.56060000  0.62400000  1.0
  H  H29  1  0.77940000  0.35340000  0.49050000  1.0
  H  H30  1  0.68660000  0.72080000  0.55920000  1.0
  H  H31  1  0.89090000  0.50960000  0.42210000  1.0
  H  H32  1  0.29340000  0.30040000  0.69320000  1.0
  H  H33  1  0.63810000  0.22460000  0.76400000  1.0
  H  H34  1  0.49160000  0.12860000  0.85670000  1.0
  H  H35  1  0.13220000  0.19760000  0.77990000  1.0
  H  H36  1  0.02180000  0.43940000  0.87600000  1.0
  H  H37  1  0.42600000  0.64660000  0.00950000  1.0
  H  H38  1  0.96580000  0.27920000  0.94080000  1.0
  H  H39  1  0.38130000  0.49040000  0.07790000  1.0
  C  C40  1  0.85519000  0.14758000  0.32614000  1.0
  C  C41  1  0.71893000  0.92566000  0.73196000  1.0
  C  C42  1  0.10512000  0.25004000  0.54920000  1.0
  C  C43  1  0.92970000  0.26200000  0.22490000  1.0
  C  C44  1  0.68400000  0.21860000  0.26710000  1.0
  C  C45  1  0.19333000  0.36406000  0.51450000  1.0
  C  C46  1  0.71260000  0.15960000  0.32240000  1.0
  C  C47  1  0.51965000  0.07170000  0.52318000  1.0
  C  C48  1  0.88844000  0.07708000  0.38226000  1.0
  C  C49  1  0.96658000  0.20156000  0.27750000  1.0
  C  C50  1  0.35230000  0.44920000  0.41640000  1.0
  C  C51  1  0.23710000  0.57020000  0.49430000  1.0
  C  C52  1  0.28992000  0.35224000  0.45500000  1.0
  C  C53  1  0.16980000  0.47680000  0.53590000  1.0
  C  C54  1  0.70761000  0.85242000  0.17386000  1.0
  C  C55  1  0.79327000  0.07434000  0.76804000  1.0
  C  C56  1  0.85508000  0.74996000  0.95080000  1.0
  C  C57  1  0.66770000  0.73800000  0.27510000  1.0
  C  C58  1  0.46540000  0.78140000  0.23290000  1.0
  C  C59  1  0.82927000  0.63594000  0.98550000  1.0
  C  C60  1  0.55300000  0.84040000  0.17760000  1.0
  C  C61  1  0.44795000  0.92830000  0.97682000  1.0
  C  C62  1  0.81136000  0.92292000  0.11774000  1.0
  C  C63  1  0.76502000  0.79844000  0.22250000  1.0
  C  C64  1  0.90310000  0.55080000  0.08360000  1.0
  C  C65  1  0.66690000  0.42980000  0.00570000  1.0
  C  C66  1  0.93768000  0.64776000  0.04500000  1.0
  C  C67  1  0.69300000  0.52320000  0.96410000  1.0
  C  C68  1  0.14481000  0.85242000  0.67386000  1.0
  C  C69  1  0.28107000  0.07434000  0.26804000  1.0
  C  C70  1  0.89488000  0.74996000  0.45080000  1.0
  C  C71  1  0.07030000  0.73800000  0.77510000  1.0
  C  C72  1  0.31600000  0.78140000  0.73290000  1.0
  C  C73  1  0.80667000  0.63594000  0.48550000  1.0
  C  C74  1  0.28740000  0.84040000  0.67760000  1.0
  C  C75  1  0.48035000  0.92830000  0.47682000  1.0
  C  C76  1  0.11156000  0.92292000  0.61774000  1.0
  C  C77  1  0.03342000  0.79844000  0.72250000  1.0
  C  C78  1  0.64770000  0.55080000  0.58360000  1.0
  C  C79  1  0.76290000  0.42980000  0.50570000  1.0
  C  C80  1  0.71008000  0.64776000  0.54500000  1.0
  C  C81  1  0.83020000  0.52320000  0.46410000  1.0
  C  C82  1  0.29239000  0.14758000  0.82614000  1.0
  C  C83  1  0.20673000  0.92566000  0.23196000  1.0
  C  C84  1  0.14492000  0.25004000  0.04920000  1.0
  C  C85  1  0.33230000  0.26200000  0.72490000  1.0
  C  C86  1  0.53460000  0.21860000  0.76710000  1.0
  C  C87  1  0.17073000  0.36406000  0.01450000  1.0
  C  C88  1  0.44700000  0.15960000  0.82240000  1.0
  C  C89  1  0.55205000  0.07170000  0.02318000  1.0
  C  C90  1  0.18864000  0.07708000  0.88226000  1.0
  C  C91  1  0.23498000  0.20156000  0.77750000  1.0
  C  C92  1  0.09690000  0.44920000  0.91640000  1.0
  C  C93  1  0.33310000  0.57020000  0.99430000  1.0
  C  C94  1  0.06232000  0.35224000  0.95500000  1.0
  C  C95  1  0.30700000  0.47680000  0.03590000  1.0
  N  N96  1  0.78966000  0.26772000  0.21760000  1.0
  N  N97  1  0.32400000  0.55560000  0.43380000  1.0
  N  N98  1  0.52194000  0.73228000  0.28240000  1.0
  N  N99  1  0.76840000  0.44440000  0.06620000  1.0
  N  N100  1  0.21034000  0.73228000  0.78240000  1.0
  N  N101  1  0.67600000  0.44440000  0.56620000  1.0
  N  N102  1  0.47806000  0.26772000  0.71760000  1.0
  N  N103  1  0.23160000  0.55560000  0.93380000  1.0
  O  O104  1  0.63733000  0.12706000  0.57714000  1.0
  O  O105  1  0.67769000  0.88438000  0.65675000  1.0
  O  O106  1  0.81468000  0.07336000  0.44378000  1.0
  O  O107  1  0.12593000  0.14646000  0.52466000  1.0
  O  O108  1  0.43287000  0.12194000  0.50409000  1.0
  O  O109  1  0.99001000  0.03062000  0.36318000  1.0
  O  O110  1  0.70236000  0.85872000  0.78148000  1.0
  O  O111  1  0.00673000  0.26066000  0.59778000  1.0
  O  O112  1  0.51027000  0.87294000  0.92286000  1.0
  O  O113  1  0.79331000  0.11562000  0.84325000  1.0
  O  O114  1  0.74132000  0.92664000  0.05622000  1.0
  O  O115  1  0.97947000  0.85354000  0.97534000  1.0
  O  O116  1  0.31093000  0.87806000  0.99591000  1.0
  O  O117  1  0.95939000  0.96938000  0.13682000  1.0
  O  O118  1  0.84364000  0.14128000  0.71852000  1.0
  O  O119  1  0.74607000  0.73934000  0.90222000  1.0
  O  O120  1  0.36267000  0.87294000  0.42286000  1.0
  O  O121  1  0.32231000  0.11562000  0.34325000  1.0
  O  O122  1  0.18532000  0.92664000  0.55622000  1.0
  O  O123  1  0.87407000  0.85354000  0.47534000  1.0
  O  O124  1  0.56713000  0.87806000  0.49591000  1.0
  O  O125  1  0.00999000  0.96938000  0.63682000  1.0
  O  O126  1  0.29764000  0.14128000  0.21852000  1.0
  O  O127  1  0.99327000  0.73934000  0.40222000  1.0
  O  O128  1  0.48973000  0.12706000  0.07714000  1.0
  O  O129  1  0.20669000  0.88438000  0.15675000  1.0
  O  O130  1  0.25868000  0.07336000  0.94378000  1.0
  O  O131  1  0.02053000  0.14646000  0.02466000  1.0
  O  O132  1  0.68907000  0.12194000  0.00409000  1.0
  O  O133  1  0.04061000  0.03062000  0.86318000  1.0
  O  O134  1  0.15636000  0.85872000  0.28148000  1.0
  O  O135  1  0.25393000  0.26066000  0.09778000  1.0
