# generated using pymatgen
data_U2H2C7NO6
_symmetry_space_group_name_H-M   'P 1'
_cell_length_a   10.32700000
_cell_length_b   12.12900000
_cell_length_c   15.07300000
_cell_angle_alpha   90.00000000
_cell_angle_beta   106.28800000
_cell_angle_gamma   90.00000000
_symmetry_Int_Tables_number   1
_chemical_formula_structural   U2H2C7NO6
_chemical_formula_sum   'U8 H8 C28 N4 O24'
_cell_volume   1812.21032359
_cell_formula_units_Z   4
loop_
 _symmetry_equiv_pos_site_id
 _symmetry_equiv_pos_as_xyz
  1  'x, y, z'
loop_
 _atom_site_type_symbol
 _atom_site_label
 _atom_site_symmetry_multiplicity
 _atom_site_fract_x
 _atom_site_fract_y
 _atom_site_fract_z
 _atom_site_occupancy
  U  U0  1  0.16176000  0.07060000  0.57247000  1.0
  U  U1  1  0.22351000  0.60399000  0.25914000  1.0
  U  U2  1  0.27649000  0.10399000  0.24086000  1.0
  U  U3  1  0.33824000  0.57060000  0.92753000  1.0
  U  U4  1  0.72351000  0.89601000  0.75914000  1.0
  U  U5  1  0.66176000  0.42940000  0.07247000  1.0
  U  U6  1  0.83824000  0.92940000  0.42753000  1.0
  U  U7  1  0.77649000  0.39601000  0.74086000  1.0
  H  H8  1  0.34940000  0.81270000  0.43170000  1.0
  H  H9  1  0.11950000  0.93530000  0.00950000  1.0
  H  H10  1  0.38050000  0.43530000  0.49050000  1.0
  H  H11  1  0.61950000  0.56470000  0.50950000  1.0
  H  H12  1  0.15060000  0.31270000  0.06830000  1.0
  H  H13  1  0.88050000  0.06470000  0.99050000  1.0
  H  H14  1  0.65060000  0.18730000  0.56830000  1.0
  H  H15  1  0.84940000  0.68730000  0.93170000  1.0
  C  C16  1  0.91470000  0.13320000  0.98070000  1.0
  C  C17  1  0.04850000  0.44400000  0.91710000  1.0
  C  C18  1  0.00660000  0.33520000  0.94640000  1.0
  C  C19  1  0.57590000  0.21960000  0.52710000  1.0
  C  C20  1  0.73070000  0.15460000  0.83030000  1.0
  C  C21  1  0.95150000  0.55600000  0.08290000  1.0
  C  C22  1  0.85270000  0.19350000  0.90370000  1.0
  C  C23  1  0.58530000  0.63320000  0.51930000  1.0
  C  C24  1  0.49340000  0.83520000  0.55360000  1.0
  C  C25  1  0.99340000  0.66480000  0.05360000  1.0
  C  C26  1  0.96860000  0.82390000  0.95480000  1.0
  C  C27  1  0.64730000  0.69350000  0.59630000  1.0
  C  C28  1  0.23070000  0.34540000  0.33030000  1.0
  C  C29  1  0.03140000  0.17610000  0.04520000  1.0
  C  C30  1  0.42410000  0.78040000  0.47290000  1.0
  C  C31  1  0.08530000  0.86680000  0.01930000  1.0
  C  C32  1  0.45150000  0.94400000  0.58290000  1.0
  C  C33  1  0.07590000  0.28040000  0.02710000  1.0
  C  C34  1  0.26930000  0.84540000  0.16970000  1.0
  C  C35  1  0.50660000  0.16480000  0.44640000  1.0
  C  C36  1  0.76930000  0.65460000  0.66970000  1.0
  C  C37  1  0.35270000  0.30650000  0.40370000  1.0
  C  C38  1  0.14730000  0.80650000  0.09630000  1.0
  C  C39  1  0.54850000  0.05600000  0.41710000  1.0
  C  C40  1  0.41470000  0.36680000  0.48070000  1.0
  C  C41  1  0.53140000  0.32390000  0.54520000  1.0
  C  C42  1  0.92410000  0.71960000  0.97290000  1.0
  C  C43  1  0.46860000  0.67610000  0.45480000  1.0
  N  N44  1  0.39510000  0.20670000  0.38510000  1.0
  N  N45  1  0.60490000  0.79330000  0.61490000  1.0
  N  N46  1  0.89510000  0.29330000  0.88510000  1.0
  N  N47  1  0.10490000  0.70670000  0.11490000  1.0
  O  O48  1  0.68800000  0.05690000  0.83660000  1.0
  O  O49  1  0.42940000  0.44540000  0.04700000  1.0
  O  O50  1  0.07060000  0.94540000  0.45300000  1.0
  O  O51  1  0.58960000  0.38040000  0.62020000  1.0
  O  O52  1  0.64860000  0.00670000  0.46840000  1.0
  O  O53  1  0.32130000  0.78030000  0.23360000  1.0
  O  O54  1  0.85140000  0.50670000  0.03160000  1.0
  O  O55  1  0.08960000  0.11960000  0.12020000  1.0
  O  O56  1  0.67870000  0.21970000  0.76640000  1.0
  O  O57  1  0.14860000  0.49330000  0.96840000  1.0
  O  O58  1  0.57060000  0.55460000  0.95300000  1.0
  O  O59  1  0.81200000  0.55690000  0.66340000  1.0
  O  O60  1  0.35140000  0.99330000  0.53160000  1.0
  O  O61  1  0.82130000  0.71970000  0.73360000  1.0
  O  O62  1  0.41040000  0.61960000  0.37980000  1.0
  O  O63  1  0.47700000  0.01930000  0.34070000  1.0
  O  O64  1  0.18800000  0.44310000  0.33660000  1.0
  O  O65  1  0.17870000  0.28030000  0.26640000  1.0
  O  O66  1  0.91040000  0.88040000  0.87980000  1.0
  O  O67  1  0.52300000  0.98070000  0.65930000  1.0
  O  O68  1  0.02300000  0.51930000  0.15930000  1.0
  O  O69  1  0.92940000  0.05460000  0.54700000  1.0
  O  O70  1  0.31200000  0.94310000  0.16340000  1.0
  O  O71  1  0.97700000  0.48070000  0.84070000  1.0
