# generated using pymatgen
data_CdH8C8(NO3)2
_symmetry_space_group_name_H-M   'P 1'
_cell_length_a   13.38000000
_cell_length_b   17.64000000
_cell_length_c   21.46000000
_cell_angle_alpha   90.00000000
_cell_angle_beta   90.00000000
_cell_angle_gamma   90.00000000
_symmetry_Int_Tables_number   1
_chemical_formula_structural   CdH8C8(NO3)2
_chemical_formula_sum   'Cd12 H96 C96 N24 O72'
_cell_volume   5065.05787200
_cell_formula_units_Z   12
loop_
 _symmetry_equiv_pos_site_id
 _symmetry_equiv_pos_as_xyz
  1  'x, y, z'
loop_
 _atom_site_type_symbol
 _atom_site_label
 _atom_site_symmetry_multiplicity
 _atom_site_fract_x
 _atom_site_fract_y
 _atom_site_fract_z
 _atom_site_occupancy
  Cd  Cd0  1  0.70294000  0.87222000  0.14313000  1.0
  Cd  Cd1  1  0.67052000  0.05659000  0.23425000  1.0
  Cd  Cd2  1  0.85288000  0.19928000  0.21988000  1.0
  Cd  Cd3  1  0.29706000  0.12778000  0.64313000  1.0
  Cd  Cd4  1  0.32948000  0.94341000  0.73425000  1.0
  Cd  Cd5  1  0.14712000  0.80072000  0.71988000  1.0
  Cd  Cd6  1  0.79706000  0.37222000  0.14313000  1.0
  Cd  Cd7  1  0.82948000  0.55659000  0.23425000  1.0
  Cd  Cd8  1  0.64712000  0.69928000  0.21988000  1.0
  Cd  Cd9  1  0.20294000  0.62778000  0.64313000  1.0
  Cd  Cd10  1  0.17052000  0.44341000  0.73425000  1.0
  Cd  Cd11  1  0.35288000  0.30072000  0.71988000  1.0
  H  H12  1  0.00660000  0.90790000  0.16210000  1.0
  H  H13  1  0.95020000  0.91460000  0.09820000  1.0
  H  H14  1  0.01240000  0.04280000  0.16780000  1.0
  H  H15  1  0.94930000  0.04690000  0.10600000  1.0
  H  H16  1  0.32610000  0.03500000  0.16870000  1.0
  H  H17  1  0.37840000  0.05560000  0.10550000  1.0
  H  H18  1  0.44850000  0.93310000  0.10300000  1.0
  H  H19  1  0.40090000  0.91700000  0.16870000  1.0
  H  H20  1  0.24000000  0.97040000  0.91800000  1.0
  H  H21  1  0.13960000  0.92470000  0.91720000  1.0
  H  H22  1  0.32950000  0.85390000  0.93660000  1.0
  H  H23  1  0.22760000  0.80930000  0.93070000  1.0
  H  H24  1  0.39630000  0.63700000  0.08000000  1.0
  H  H25  1  0.34920000  0.68730000  0.13280000  1.0
  H  H26  1  0.44370000  0.74520000  0.02470000  1.0
  H  H27  1  0.39040000  0.79730000  0.07360000  1.0
  H  H28  1  0.96060000  0.76700000  0.04530000  1.0
  H  H29  1  0.02250000  0.78860000  0.10470000  1.0
  H  H30  1  0.98960000  0.67030000  0.14860000  1.0
  H  H31  1  0.93220000  0.64530000  0.08830000  1.0
  H  H32  1  0.09700000  0.58860000  0.90430000  1.0
  H  H33  1  0.21310000  0.57680000  0.90190000  1.0
  H  H34  1  0.11030000  0.70200000  0.85150000  1.0
  H  H35  1  0.22720000  0.69880000  0.85480000  1.0
  H  H36  1  0.99340000  0.09210000  0.66210000  1.0
  H  H37  1  0.04980000  0.08540000  0.59820000  1.0
  H  H38  1  0.98760000  0.95720000  0.66780000  1.0
  H  H39  1  0.05070000  0.95310000  0.60600000  1.0
  H  H40  1  0.67390000  0.96500000  0.66870000  1.0
  H  H41  1  0.62160000  0.94440000  0.60550000  1.0
  H  H42  1  0.55150000  0.06690000  0.60300000  1.0
  H  H43  1  0.59910000  0.08300000  0.66870000  1.0
  H  H44  1  0.76000000  0.02960000  0.41800000  1.0
  H  H45  1  0.86040000  0.07530000  0.41720000  1.0
  H  H46  1  0.67050000  0.14610000  0.43660000  1.0
  H  H47  1  0.77240000  0.19070000  0.43070000  1.0
  H  H48  1  0.60370000  0.36300000  0.58000000  1.0
  H  H49  1  0.65080000  0.31270000  0.63280000  1.0
  H  H50  1  0.55630000  0.25480000  0.52470000  1.0
  H  H51  1  0.60960000  0.20270000  0.57360000  1.0
  H  H52  1  0.03940000  0.23300000  0.54530000  1.0
  H  H53  1  0.97750000  0.21140000  0.60470000  1.0
  H  H54  1  0.01040000  0.32970000  0.64860000  1.0
  H  H55  1  0.06780000  0.35470000  0.58830000  1.0
  H  H56  1  0.90300000  0.41140000  0.40430000  1.0
  H  H57  1  0.78690000  0.42320000  0.40190000  1.0
  H  H58  1  0.88970000  0.29800000  0.35150000  1.0
  H  H59  1  0.77280000  0.30120000  0.35480000  1.0
  H  H60  1  0.49340000  0.40790000  0.16210000  1.0
  H  H61  1  0.54980000  0.41460000  0.09820000  1.0
  H  H62  1  0.48760000  0.54280000  0.16780000  1.0
  H  H63  1  0.55070000  0.54690000  0.10600000  1.0
  H  H64  1  0.17390000  0.53500000  0.16870000  1.0
  H  H65  1  0.12160000  0.55560000  0.10550000  1.0
  H  H66  1  0.05150000  0.43310000  0.10300000  1.0
  H  H67  1  0.09910000  0.41700000  0.16870000  1.0
  H  H68  1  0.26000000  0.47040000  0.91800000  1.0
  H  H69  1  0.36040000  0.42470000  0.91720000  1.0
  H  H70  1  0.17050000  0.35390000  0.93660000  1.0
  H  H71  1  0.27240000  0.30930000  0.93070000  1.0
  H  H72  1  0.10370000  0.13700000  0.08000000  1.0
  H  H73  1  0.15080000  0.18730000  0.13280000  1.0
  H  H74  1  0.05630000  0.24520000  0.02470000  1.0
  H  H75  1  0.10960000  0.29730000  0.07360000  1.0
  H  H76  1  0.53940000  0.26700000  0.04530000  1.0
  H  H77  1  0.47750000  0.28860000  0.10470000  1.0
  H  H78  1  0.51040000  0.17030000  0.14860000  1.0
  H  H79  1  0.56780000  0.14530000  0.08830000  1.0
  H  H80  1  0.40300000  0.08860000  0.90430000  1.0
  H  H81  1  0.28690000  0.07680000  0.90190000  1.0
  H  H82  1  0.38970000  0.20200000  0.85150000  1.0
  H  H83  1  0.27280000  0.19880000  0.85480000  1.0
  H  H84  1  0.50660000  0.59210000  0.66210000  1.0
  H  H85  1  0.45020000  0.58540000  0.59820000  1.0
  H  H86  1  0.51240000  0.45720000  0.66780000  1.0
  H  H87  1  0.44930000  0.45310000  0.60600000  1.0
  H  H88  1  0.82610000  0.46500000  0.66870000  1.0
  H  H89  1  0.87840000  0.44440000  0.60550000  1.0
  H  H90  1  0.94850000  0.56690000  0.60300000  1.0
  H  H91  1  0.90090000  0.58300000  0.66870000  1.0
  H  H92  1  0.74000000  0.52960000  0.41800000  1.0
  H  H93  1  0.63960000  0.57530000  0.41720000  1.0
  H  H94  1  0.82950000  0.64610000  0.43660000  1.0
  H  H95  1  0.72760000  0.69070000  0.43070000  1.0
  H  H96  1  0.89630000  0.86300000  0.58000000  1.0
  H  H97  1  0.84920000  0.81270000  0.63280000  1.0
  H  H98  1  0.94370000  0.75480000  0.52470000  1.0
  H  H99  1  0.89040000  0.70270000  0.57360000  1.0
  H  H100  1  0.46060000  0.73300000  0.54530000  1.0
  H  H101  1  0.52250000  0.71140000  0.60470000  1.0
  H  H102  1  0.48960000  0.82970000  0.64860000  1.0
  H  H103  1  0.43220000  0.85470000  0.58830000  1.0
  H  H104  1  0.59700000  0.91140000  0.40430000  1.0
  H  H105  1  0.71310000  0.92320000  0.40190000  1.0
  H  H106  1  0.61030000  0.79800000  0.35150000  1.0
  H  H107  1  0.72720000  0.80120000  0.35480000  1.0
  C  C108  1  0.17890000  0.96610000  0.12860000  1.0
  C  C109  1  0.27550000  0.96720000  0.03280000  1.0
  C  C110  1  0.10080000  0.93020000  0.02980000  1.0
  C  C111  1  0.99900000  0.93880000  0.12500000  1.0
  C  C112  1  0.96230000  0.01690000  0.14310000  1.0
  C  C113  1  0.86720000  0.00730000  0.18030000  1.0
  C  C114  1  0.34940000  0.01440000  0.12940000  1.0
  C  C115  1  0.42740000  0.95630000  0.14180000  1.0
  C  C116  1  0.51790000  0.99590000  0.17380000  1.0
  C  C117  1  0.20580000  0.92680000  0.93550000  1.0
  C  C118  1  0.26370000  0.85430000  0.91760000  1.0
  C  C119  1  0.27120000  0.85820000  0.84720000  1.0
  C  C120  1  0.26040000  0.64780000  0.99730000  1.0
  C  C121  1  0.08260000  0.68410000  0.99190000  1.0
  C  C122  1  0.18610000  0.72270000  0.07980000  1.0
  C  C123  1  0.36210000  0.68440000  0.08840000  1.0
  C  C124  1  0.42810000  0.75070000  0.06860000  1.0
  C  C125  1  0.52470000  0.75780000  0.10450000  1.0
  C  C126  1  0.00410000  0.74700000  0.07750000  1.0
  C  C127  1  0.94750000  0.68820000  0.11490000  1.0
  C  C128  1  0.84990000  0.72000000  0.14210000  1.0
  C  C129  1  0.16090000  0.61470000  0.90550000  1.0
  C  C130  1  0.16740000  0.66820000  0.85060000  1.0
  C  C131  1  0.17010000  0.62830000  0.78880000  1.0
  C  C132  1  0.82110000  0.03390000  0.62860000  1.0
  C  C133  1  0.72450000  0.03280000  0.53280000  1.0
  C  C134  1  0.89920000  0.06980000  0.52980000  1.0
  C  C135  1  0.00100000  0.06120000  0.62500000  1.0
  C  C136  1  0.03770000  0.98310000  0.64310000  1.0
  C  C137  1  0.13280000  0.99270000  0.68030000  1.0
  C  C138  1  0.65060000  0.98560000  0.62940000  1.0
  C  C139  1  0.57260000  0.04370000  0.64180000  1.0
  C  C140  1  0.48210000  0.00410000  0.67380000  1.0
  C  C141  1  0.79420000  0.07320000  0.43550000  1.0
  C  C142  1  0.73630000  0.14570000  0.41760000  1.0
  C  C143  1  0.72880000  0.14180000  0.34720000  1.0
  C  C144  1  0.73960000  0.35220000  0.49730000  1.0
  C  C145  1  0.91740000  0.31590000  0.49190000  1.0
  C  C146  1  0.81390000  0.27730000  0.57980000  1.0
  C  C147  1  0.63790000  0.31560000  0.58840000  1.0
  C  C148  1  0.57190000  0.24930000  0.56860000  1.0
  C  C149  1  0.47530000  0.24220000  0.60450000  1.0
  C  C150  1  0.99590000  0.25300000  0.57750000  1.0
  C  C151  1  0.05250000  0.31180000  0.61490000  1.0
  C  C152  1  0.15010000  0.28000000  0.64210000  1.0
  C  C153  1  0.83910000  0.38530000  0.40550000  1.0
  C  C154  1  0.83260000  0.33180000  0.35060000  1.0
  C  C155  1  0.82990000  0.37170000  0.28880000  1.0
  C  C156  1  0.32110000  0.46610000  0.12860000  1.0
  C  C157  1  0.22450000  0.46720000  0.03280000  1.0
  C  C158  1  0.39920000  0.43020000  0.02980000  1.0
  C  C159  1  0.50100000  0.43880000  0.12500000  1.0
  C  C160  1  0.53770000  0.51690000  0.14310000  1.0
  C  C161  1  0.63280000  0.50730000  0.18030000  1.0
  C  C162  1  0.15060000  0.51440000  0.12940000  1.0
  C  C163  1  0.07260000  0.45630000  0.14180000  1.0
  C  C164  1  0.98210000  0.49590000  0.17380000  1.0
  C  C165  1  0.29420000  0.42680000  0.93550000  1.0
  C  C166  1  0.23630000  0.35430000  0.91760000  1.0
  C  C167  1  0.22880000  0.35820000  0.84720000  1.0
  C  C168  1  0.23960000  0.14780000  0.99730000  1.0
  C  C169  1  0.41740000  0.18410000  0.99190000  1.0
  C  C170  1  0.31390000  0.22270000  0.07980000  1.0
  C  C171  1  0.13790000  0.18440000  0.08840000  1.0
  C  C172  1  0.07190000  0.25070000  0.06860000  1.0
  C  C173  1  0.97530000  0.25780000  0.10450000  1.0
  C  C174  1  0.49590000  0.24700000  0.07750000  1.0
  C  C175  1  0.55250000  0.18820000  0.11490000  1.0
  C  C176  1  0.65010000  0.22000000  0.14210000  1.0
  C  C177  1  0.33910000  0.11470000  0.90550000  1.0
  C  C178  1  0.33260000  0.16820000  0.85060000  1.0
  C  C179  1  0.32990000  0.12830000  0.78880000  1.0
  C  C180  1  0.67890000  0.53390000  0.62860000  1.0
  C  C181  1  0.77550000  0.53280000  0.53280000  1.0
  C  C182  1  0.60080000  0.56980000  0.52980000  1.0
  C  C183  1  0.49900000  0.56120000  0.62500000  1.0
  C  C184  1  0.46230000  0.48310000  0.64310000  1.0
  C  C185  1  0.36720000  0.49270000  0.68030000  1.0
  C  C186  1  0.84940000  0.48560000  0.62940000  1.0
  C  C187  1  0.92740000  0.54370000  0.64180000  1.0
  C  C188  1  0.01790000  0.50410000  0.67380000  1.0
  C  C189  1  0.70580000  0.57320000  0.43550000  1.0
  C  C190  1  0.76370000  0.64570000  0.41760000  1.0
  C  C191  1  0.77120000  0.64180000  0.34720000  1.0
  C  C192  1  0.76040000  0.85220000  0.49730000  1.0
  C  C193  1  0.58260000  0.81590000  0.49190000  1.0
  C  C194  1  0.68610000  0.77730000  0.57980000  1.0
  C  C195  1  0.86210000  0.81560000  0.58840000  1.0
  C  C196  1  0.92810000  0.74930000  0.56860000  1.0
  C  C197  1  0.02470000  0.74220000  0.60450000  1.0
  C  C198  1  0.50410000  0.75300000  0.57750000  1.0
  C  C199  1  0.44750000  0.81180000  0.61490000  1.0
  C  C200  1  0.34990000  0.78000000  0.64210000  1.0
  C  C201  1  0.66090000  0.88530000  0.40550000  1.0
  C  C202  1  0.66740000  0.83180000  0.35060000  1.0
  C  C203  1  0.67010000  0.87170000  0.28880000  1.0
  N  N204  1  0.09520000  0.94420000  0.09240000  1.0
  N  N205  1  0.26500000  0.98330000  0.09540000  1.0
  N  N206  1  0.19620000  0.93720000  0.00300000  1.0
  N  N207  1  0.26420000  0.68640000  0.05310000  1.0
  N  N208  1  0.09300000  0.71690000  0.04890000  1.0
  N  N209  1  0.17090000  0.65310000  0.96510000  1.0
  N  N210  1  0.90480000  0.05580000  0.59240000  1.0
  N  N211  1  0.73500000  0.01670000  0.59540000  1.0
  N  N212  1  0.80380000  0.06280000  0.50300000  1.0
  N  N213  1  0.73580000  0.31360000  0.55310000  1.0
  N  N214  1  0.90700000  0.28310000  0.54890000  1.0
  N  N215  1  0.82910000  0.34690000  0.46510000  1.0
  N  N216  1  0.40480000  0.44420000  0.09240000  1.0
  N  N217  1  0.23500000  0.48330000  0.09540000  1.0
  N  N218  1  0.30380000  0.43720000  0.00300000  1.0
  N  N219  1  0.23580000  0.18640000  0.05310000  1.0
  N  N220  1  0.40700000  0.21690000  0.04890000  1.0
  N  N221  1  0.32910000  0.15310000  0.96510000  1.0
  N  N222  1  0.59520000  0.55580000  0.59240000  1.0
  N  N223  1  0.76500000  0.51670000  0.59540000  1.0
  N  N224  1  0.69620000  0.56280000  0.50300000  1.0
  N  N225  1  0.76420000  0.81360000  0.55310000  1.0
  N  N226  1  0.59300000  0.78310000  0.54890000  1.0
  N  N227  1  0.67090000  0.84690000  0.46510000  1.0
  O  O228  1  0.17460000  0.97420000  0.18360000  1.0
  O  O229  1  0.35300000  0.98390000  0.00600000  1.0
  O  O230  1  0.02890000  0.91140000  0.00020000  1.0
  O  O231  1  0.82660000  0.94510000  0.18510000  1.0
  O  O232  1  0.83050000  0.06690000  0.20560000  1.0
  O  O233  1  0.50200000  0.04260000  0.21510000  1.0
  O  O234  1  0.60570000  0.98190000  0.15380000  1.0
  O  O235  1  0.34410000  0.88950000  0.82530000  1.0
  O  O236  1  0.19610000  0.83540000  0.81610000  1.0
  O  O237  1  0.32980000  0.60900000  0.97860000  1.0
  O  O238  1  0.00620000  0.68190000  0.96420000  1.0
  O  O239  1  0.19320000  0.75830000  0.12870000  1.0
  O  O240  1  0.55270000  0.70220000  0.13530000  1.0
  O  O241  1  0.56850000  0.81980000  0.09940000  1.0
  O  O242  1  0.16520000  0.55990000  0.78710000  1.0
  O  O243  1  0.17080000  0.67180000  0.73980000  1.0
  O  O244  1  0.80500000  0.68020000  0.18450000  1.0
  O  O245  1  0.82030000  0.78300000  0.12510000  1.0
  O  O246  1  0.82540000  0.02580000  0.68360000  1.0
  O  O247  1  0.64700000  0.01610000  0.50600000  1.0
  O  O248  1  0.97110000  0.08860000  0.50020000  1.0
  O  O249  1  0.17340000  0.05490000  0.68510000  1.0
  O  O250  1  0.16950000  0.93310000  0.70560000  1.0
  O  O251  1  0.49800000  0.95740000  0.71510000  1.0
  O  O252  1  0.39430000  0.01810000  0.65380000  1.0
  O  O253  1  0.65590000  0.11050000  0.32530000  1.0
  O  O254  1  0.80390000  0.16460000  0.31610000  1.0
  O  O255  1  0.67020000  0.39100000  0.47860000  1.0
  O  O256  1  0.99380000  0.31810000  0.46420000  1.0
  O  O257  1  0.80680000  0.24170000  0.62870000  1.0
  O  O258  1  0.44730000  0.29780000  0.63530000  1.0
  O  O259  1  0.43150000  0.18020000  0.59940000  1.0
  O  O260  1  0.83480000  0.44010000  0.28710000  1.0
  O  O261  1  0.82920000  0.32820000  0.23980000  1.0
  O  O262  1  0.19500000  0.31980000  0.68450000  1.0
  O  O263  1  0.17970000  0.21700000  0.62510000  1.0
  O  O264  1  0.32540000  0.47420000  0.18360000  1.0
  O  O265  1  0.14700000  0.48390000  0.00600000  1.0
  O  O266  1  0.47110000  0.41140000  0.00020000  1.0
  O  O267  1  0.67340000  0.44510000  0.18510000  1.0
  O  O268  1  0.66950000  0.56690000  0.20560000  1.0
  O  O269  1  0.99800000  0.54260000  0.21510000  1.0
  O  O270  1  0.89430000  0.48190000  0.15380000  1.0
  O  O271  1  0.15590000  0.38950000  0.82530000  1.0
  O  O272  1  0.30390000  0.33540000  0.81610000  1.0
  O  O273  1  0.17020000  0.10900000  0.97860000  1.0
  O  O274  1  0.49380000  0.18190000  0.96420000  1.0
  O  O275  1  0.30680000  0.25830000  0.12870000  1.0
  O  O276  1  0.94730000  0.20220000  0.13530000  1.0
  O  O277  1  0.93150000  0.31980000  0.09940000  1.0
  O  O278  1  0.33480000  0.05990000  0.78710000  1.0
  O  O279  1  0.32920000  0.17180000  0.73980000  1.0
  O  O280  1  0.69500000  0.18020000  0.18450000  1.0
  O  O281  1  0.67970000  0.28300000  0.12510000  1.0
  O  O282  1  0.67460000  0.52580000  0.68360000  1.0
  O  O283  1  0.85300000  0.51610000  0.50600000  1.0
  O  O284  1  0.52890000  0.58860000  0.50020000  1.0
  O  O285  1  0.32660000  0.55490000  0.68510000  1.0
  O  O286  1  0.33050000  0.43310000  0.70560000  1.0
  O  O287  1  0.00200000  0.45740000  0.71510000  1.0
  O  O288  1  0.10570000  0.51810000  0.65380000  1.0
  O  O289  1  0.84410000  0.61050000  0.32530000  1.0
  O  O290  1  0.69610000  0.66460000  0.31610000  1.0
  O  O291  1  0.82980000  0.89100000  0.47860000  1.0
  O  O292  1  0.50620000  0.81810000  0.46420000  1.0
  O  O293  1  0.69320000  0.74170000  0.62870000  1.0
  O  O294  1  0.05270000  0.79780000  0.63530000  1.0
  O  O295  1  0.06850000  0.68020000  0.59940000  1.0
  O  O296  1  0.66520000  0.94010000  0.28710000  1.0
  O  O297  1  0.67080000  0.82820000  0.23980000  1.0
  O  O298  1  0.30500000  0.81980000  0.68450000  1.0
  O  O299  1  0.32030000  0.71700000  0.62510000  1.0
