# generated using pymatgen
data_LaH12(C5O2)3
_symmetry_space_group_name_H-M   'P 1'
_cell_length_a   10.21800000
_cell_length_b   22.10100000
_cell_length_c   14.28300000
_cell_angle_alpha   91.27600000
_cell_angle_beta   90.00000000
_cell_angle_gamma   90.00000000
_symmetry_Int_Tables_number   1
_chemical_formula_structural   LaH12(C5O2)3
_chemical_formula_sum   'La8 H96 C120 O48'
_cell_volume   3224.70173690
_cell_formula_units_Z   8
loop_
 _symmetry_equiv_pos_site_id
 _symmetry_equiv_pos_as_xyz
  1  'x, y, z'
loop_
 _atom_site_type_symbol
 _atom_site_label
 _atom_site_symmetry_multiplicity
 _atom_site_fract_x
 _atom_site_fract_y
 _atom_site_fract_z
 _atom_site_occupancy
  La  La0  1  0.44338000  0.74180000  0.73499000  1.0
  La  La1  1  0.24886000  0.75007000  0.97873000  1.0
  La  La2  1  0.94338000  0.25820000  0.76501000  1.0
  La  La3  1  0.74886000  0.24993000  0.52127000  1.0
  La  La4  1  0.55662000  0.25820000  0.26501000  1.0
  La  La5  1  0.75114000  0.24993000  0.02127000  1.0
  La  La6  1  0.05662000  0.74180000  0.23499000  1.0
  La  La7  1  0.25114000  0.75007000  0.47873000  1.0
  H  H8  1  0.63920000  0.53360000  0.87070000  1.0
  H  H9  1  0.70230000  0.43930000  0.81440000  1.0
  H  H10  1  0.33050000  0.38610000  0.81310000  1.0
  H  H11  1  0.26740000  0.48060000  0.86370000  1.0
  H  H12  1  0.45590000  0.58580000  0.96970000  1.0
  H  H13  1  0.31400000  0.57310000  0.93370000  1.0
  H  H14  1  0.62430000  0.34340000  0.72120000  1.0
  H  H15  1  0.48960000  0.31710000  0.75430000  1.0
  H  H16  1  0.83940000  0.90330000  0.78960000  1.0
  H  H17  1  0.77390000  0.99130000  0.86230000  1.0
  H  H18  1  0.14470000  0.04400000  0.88430000  1.0
  H  H19  1  0.21070000  0.95490000  0.81320000  1.0
  H  H20  1  0.00810000  0.84140000  0.71540000  1.0
  H  H21  1  0.14790000  0.86960000  0.70420000  1.0
  H  H22  1  0.95690000  0.09200000  0.98400000  1.0
  H  H23  1  0.81530000  0.08240000  0.94480000  1.0
  H  H24  1  0.58120000  0.53110000  0.35880000  1.0
  H  H25  1  0.50670000  0.56470000  0.62720000  1.0
  H  H26  1  0.69900000  0.62080000  0.52430000  1.0
  H  H27  1  0.64610000  0.62580000  0.42140000  1.0
  H  H28  1  0.46600000  0.97840000  0.84330000  1.0
  H  H29  1  0.59200000  0.92870000  0.09530000  1.0
  H  H30  1  0.65210000  0.86890000  0.95220000  1.0
  H  H31  1  0.58870000  0.88530000  0.85610000  1.0
  H  H32  1  0.13920000  0.46640000  0.62930000  1.0
  H  H33  1  0.20230000  0.56070000  0.68560000  1.0
  H  H34  1  0.83050000  0.61390000  0.68690000  1.0
  H  H35  1  0.76740000  0.51940000  0.63630000  1.0
  H  H36  1  0.95590000  0.41420000  0.53030000  1.0
  H  H37  1  0.81400000  0.42690000  0.56630000  1.0
  H  H38  1  0.12430000  0.65660000  0.77880000  1.0
  H  H39  1  0.98960000  0.68290000  0.74570000  1.0
  H  H40  1  0.33940000  0.09670000  0.71040000  1.0
  H  H41  1  0.27390000  0.00870000  0.63770000  1.0
  H  H42  1  0.64470000  0.95600000  0.61570000  1.0
  H  H43  1  0.71070000  0.04510000  0.68680000  1.0
  H  H44  1  0.50810000  0.15860000  0.78460000  1.0
  H  H45  1  0.64790000  0.13040000  0.79580000  1.0
  H  H46  1  0.45690000  0.90800000  0.51600000  1.0
  H  H47  1  0.31530000  0.91760000  0.55520000  1.0
  H  H48  1  0.08120000  0.46890000  0.14120000  1.0
  H  H49  1  0.00670000  0.43530000  0.87280000  1.0
  H  H50  1  0.19900000  0.37920000  0.97570000  1.0
  H  H51  1  0.14610000  0.37420000  0.07860000  1.0
  H  H52  1  0.96600000  0.02160000  0.65670000  1.0
  H  H53  1  0.09200000  0.07130000  0.40470000  1.0
  H  H54  1  0.15210000  0.13110000  0.54780000  1.0
  H  H55  1  0.08870000  0.11470000  0.64390000  1.0
  H  H56  1  0.36080000  0.46640000  0.12930000  1.0
  H  H57  1  0.29770000  0.56070000  0.18560000  1.0
  H  H58  1  0.66950000  0.61390000  0.18690000  1.0
  H  H59  1  0.73260000  0.51940000  0.13630000  1.0
  H  H60  1  0.54410000  0.41420000  0.03030000  1.0
  H  H61  1  0.68600000  0.42690000  0.06630000  1.0
  H  H62  1  0.37570000  0.65660000  0.27880000  1.0
  H  H63  1  0.51040000  0.68290000  0.24570000  1.0
  H  H64  1  0.16060000  0.09670000  0.21040000  1.0
  H  H65  1  0.22610000  0.00870000  0.13770000  1.0
  H  H66  1  0.85530000  0.95600000  0.11570000  1.0
  H  H67  1  0.78930000  0.04510000  0.18680000  1.0
  H  H68  1  0.99190000  0.15860000  0.28460000  1.0
  H  H69  1  0.85210000  0.13040000  0.29580000  1.0
  H  H70  1  0.04310000  0.90800000  0.01600000  1.0
  H  H71  1  0.18470000  0.91760000  0.05520000  1.0
  H  H72  1  0.41880000  0.46890000  0.64120000  1.0
  H  H73  1  0.49330000  0.43530000  0.37280000  1.0
  H  H74  1  0.30100000  0.37920000  0.47570000  1.0
  H  H75  1  0.35390000  0.37420000  0.57860000  1.0
  H  H76  1  0.53400000  0.02160000  0.15670000  1.0
  H  H77  1  0.40800000  0.07130000  0.90470000  1.0
  H  H78  1  0.34790000  0.13110000  0.04780000  1.0
  H  H79  1  0.41130000  0.11470000  0.14390000  1.0
  H  H80  1  0.86080000  0.53360000  0.37070000  1.0
  H  H81  1  0.79770000  0.43930000  0.31440000  1.0
  H  H82  1  0.16950000  0.38610000  0.31310000  1.0
  H  H83  1  0.23260000  0.48060000  0.36370000  1.0
  H  H84  1  0.04410000  0.58580000  0.46970000  1.0
  H  H85  1  0.18600000  0.57310000  0.43370000  1.0
  H  H86  1  0.87570000  0.34340000  0.22120000  1.0
  H  H87  1  0.01040000  0.31710000  0.25430000  1.0
  H  H88  1  0.66060000  0.90330000  0.28960000  1.0
  H  H89  1  0.72610000  0.99130000  0.36230000  1.0
  H  H90  1  0.35530000  0.04400000  0.38430000  1.0
  H  H91  1  0.28930000  0.95490000  0.31320000  1.0
  H  H92  1  0.49190000  0.84140000  0.21540000  1.0
  H  H93  1  0.35210000  0.86960000  0.20420000  1.0
  H  H94  1  0.54310000  0.09200000  0.48400000  1.0
  H  H95  1  0.68470000  0.08240000  0.44480000  1.0
  H  H96  1  0.91880000  0.53110000  0.85880000  1.0
  H  H97  1  0.99330000  0.56470000  0.12720000  1.0
  H  H98  1  0.80100000  0.62080000  0.02430000  1.0
  H  H99  1  0.85390000  0.62580000  0.92140000  1.0
  H  H100  1  0.03400000  0.97840000  0.34330000  1.0
  H  H101  1  0.90800000  0.92870000  0.59530000  1.0
  H  H102  1  0.84790000  0.86890000  0.45220000  1.0
  H  H103  1  0.91130000  0.88530000  0.35610000  1.0
  C  C104  1  0.44760000  0.51660000  0.87520000  1.0
  C  C105  1  0.57630000  0.50400000  0.85900000  1.0
  C  C106  1  0.61410000  0.44720000  0.82510000  1.0
  C  C107  1  0.52360000  0.40270000  0.80710000  1.0
  C  C108  1  0.39350000  0.41580000  0.82360000  1.0
  C  C109  1  0.35590000  0.47210000  0.85540000  1.0
  C  C110  1  0.40440000  0.57680000  0.91400000  1.0
  C  C111  1  0.41410000  0.62980000  0.85090000  1.0
  C  C112  1  0.56560000  0.34030000  0.77420000  1.0
  C  C113  1  0.63350000  0.30870000  0.85240000  1.0
  C  C114  1  0.03260000  0.91870000  0.79470000  1.0
  C  C115  1  0.90210000  0.93130000  0.80910000  1.0
  C  C116  1  0.86270000  0.98470000  0.85190000  1.0
  C  C117  1  0.94940000  0.02810000  0.87910000  1.0
  C  C118  1  0.08230000  0.01570000  0.86510000  1.0
  C  C119  1  0.12190000  0.96200000  0.82280000  1.0
  C  C120  1  0.08000000  0.86040000  0.74920000  1.0
  C  C121  1  0.13250000  0.81750000  0.81810000  1.0
  C  C122  1  0.90640000  0.08640000  0.92700000  1.0
  C  C123  1  0.92100000  0.14240000  0.86880000  1.0
  C  C124  1  0.55560000  0.55690000  0.49360000  1.0
  C  C125  1  0.54930000  0.51870000  0.41630000  1.0
  C  C126  1  0.50510000  0.53850000  0.57530000  1.0
  C  C127  1  0.62080000  0.61910000  0.48580000  1.0
  C  C128  1  0.52350000  0.66830000  0.51880000  1.0
  C  C129  1  0.53670000  0.94350000  0.96160000  1.0
  C  C130  1  0.48030000  0.98690000  0.90650000  1.0
  C  C131  1  0.55520000  0.95740000  0.05660000  1.0
  C  C132  1  0.57190000  0.88230000  0.92270000  1.0
  C  C133  1  0.46690000  0.83560000  0.93730000  1.0
  C  C134  1  0.94760000  0.48340000  0.62480000  1.0
  C  C135  1  0.07630000  0.49600000  0.64100000  1.0
  C  C136  1  0.11410000  0.55280000  0.67490000  1.0
  C  C137  1  0.02360000  0.59730000  0.69290000  1.0
  C  C138  1  0.89350000  0.58420000  0.67640000  1.0
  C  C139  1  0.85590000  0.52790000  0.64460000  1.0
  C  C140  1  0.90440000  0.42320000  0.58600000  1.0
  C  C141  1  0.91410000  0.37020000  0.64910000  1.0
  C  C142  1  0.06560000  0.65970000  0.72580000  1.0
  C  C143  1  0.13350000  0.69130000  0.64760000  1.0
  C  C144  1  0.53260000  0.08130000  0.70530000  1.0
  C  C145  1  0.40210000  0.06870000  0.69090000  1.0
  C  C146  1  0.36270000  0.01530000  0.64810000  1.0
  C  C147  1  0.44940000  0.97190000  0.62090000  1.0
  C  C148  1  0.58230000  0.98430000  0.63490000  1.0
  C  C149  1  0.62190000  0.03800000  0.67720000  1.0
  C  C150  1  0.58000000  0.13960000  0.75080000  1.0
  C  C151  1  0.63250000  0.18250000  0.68190000  1.0
  C  C152  1  0.40640000  0.91360000  0.57300000  1.0
  C  C153  1  0.42100000  0.85760000  0.63120000  1.0
  C  C154  1  0.05560000  0.44310000  0.00640000  1.0
  C  C155  1  0.04930000  0.48130000  0.08370000  1.0
  C  C156  1  0.00510000  0.46150000  0.92470000  1.0
  C  C157  1  0.12080000  0.38090000  0.01420000  1.0
  C  C158  1  0.02350000  0.33170000  0.98120000  1.0
  C  C159  1  0.03670000  0.05650000  0.53840000  1.0
  C  C160  1  0.98030000  0.01310000  0.59350000  1.0
  C  C161  1  0.05520000  0.04260000  0.44340000  1.0
  C  C162  1  0.07190000  0.11770000  0.57730000  1.0
  C  C163  1  0.96690000  0.16440000  0.56270000  1.0
  C  C164  1  0.55240000  0.48340000  0.12480000  1.0
  C  C165  1  0.42370000  0.49600000  0.14100000  1.0
  C  C166  1  0.38590000  0.55280000  0.17490000  1.0
  C  C167  1  0.47640000  0.59730000  0.19290000  1.0
  C  C168  1  0.60650000  0.58420000  0.17640000  1.0
  C  C169  1  0.64410000  0.52790000  0.14460000  1.0
  C  C170  1  0.59560000  0.42320000  0.08600000  1.0
  C  C171  1  0.58590000  0.37020000  0.14910000  1.0
  C  C172  1  0.43440000  0.65970000  0.22580000  1.0
  C  C173  1  0.36650000  0.69130000  0.14760000  1.0
  C  C174  1  0.96740000  0.08130000  0.20530000  1.0
  C  C175  1  0.09790000  0.06870000  0.19090000  1.0
  C  C176  1  0.13730000  0.01530000  0.14810000  1.0
  C  C177  1  0.05060000  0.97190000  0.12090000  1.0
  C  C178  1  0.91770000  0.98430000  0.13490000  1.0
  C  C179  1  0.87810000  0.03800000  0.17720000  1.0
  C  C180  1  0.92000000  0.13960000  0.25080000  1.0
  C  C181  1  0.86750000  0.18250000  0.18190000  1.0
  C  C182  1  0.09360000  0.91360000  0.07300000  1.0
  C  C183  1  0.07900000  0.85760000  0.13120000  1.0
  C  C184  1  0.44440000  0.44310000  0.50640000  1.0
  C  C185  1  0.45070000  0.48130000  0.58370000  1.0
  C  C186  1  0.49490000  0.46150000  0.42470000  1.0
  C  C187  1  0.37920000  0.38090000  0.51420000  1.0
  C  C188  1  0.47650000  0.33170000  0.48120000  1.0
  C  C189  1  0.46330000  0.05650000  0.03840000  1.0
  C  C190  1  0.51970000  0.01310000  0.09350000  1.0
  C  C191  1  0.44480000  0.04260000  0.94340000  1.0
  C  C192  1  0.42810000  0.11770000  0.07730000  1.0
  C  C193  1  0.53310000  0.16440000  0.06270000  1.0
  C  C194  1  0.05240000  0.51660000  0.37520000  1.0
  C  C195  1  0.92370000  0.50400000  0.35900000  1.0
  C  C196  1  0.88590000  0.44720000  0.32510000  1.0
  C  C197  1  0.97640000  0.40270000  0.30710000  1.0
  C  C198  1  0.10650000  0.41580000  0.32360000  1.0
  C  C199  1  0.14410000  0.47210000  0.35540000  1.0
  C  C200  1  0.09560000  0.57680000  0.41400000  1.0
  C  C201  1  0.08590000  0.62980000  0.35090000  1.0
  C  C202  1  0.93440000  0.34030000  0.27420000  1.0
  C  C203  1  0.86650000  0.30870000  0.35240000  1.0
  C  C204  1  0.46740000  0.91870000  0.29470000  1.0
  C  C205  1  0.59790000  0.93130000  0.30910000  1.0
  C  C206  1  0.63730000  0.98470000  0.35190000  1.0
  C  C207  1  0.55060000  0.02810000  0.37910000  1.0
  C  C208  1  0.41770000  0.01570000  0.36510000  1.0
  C  C209  1  0.37810000  0.96200000  0.32280000  1.0
  C  C210  1  0.42000000  0.86040000  0.24920000  1.0
  C  C211  1  0.36750000  0.81750000  0.31810000  1.0
  C  C212  1  0.59360000  0.08640000  0.42700000  1.0
  C  C213  1  0.57900000  0.14240000  0.36880000  1.0
  C  C214  1  0.94440000  0.55690000  0.99360000  1.0
  C  C215  1  0.95070000  0.51870000  0.91630000  1.0
  C  C216  1  0.99490000  0.53850000  0.07530000  1.0
  C  C217  1  0.87920000  0.61910000  0.98580000  1.0
  C  C218  1  0.97650000  0.66830000  0.01880000  1.0
  C  C219  1  0.96330000  0.94350000  0.46160000  1.0
  C  C220  1  0.01970000  0.98690000  0.40650000  1.0
  C  C221  1  0.94480000  0.95740000  0.55660000  1.0
  C  C222  1  0.92810000  0.88230000  0.42270000  1.0
  C  C223  1  0.03310000  0.83560000  0.43730000  1.0
  O  O224  1  0.48930000  0.63040000  0.78190000  1.0
  O  O225  1  0.34240000  0.67520000  0.86850000  1.0
  O  O226  1  0.75640000  0.30680000  0.85670000  1.0
  O  O227  1  0.56540000  0.28460000  0.91520000  1.0
  O  O228  1  0.23250000  0.78600000  0.79920000  1.0
  O  O229  1  0.07550000  0.81120000  0.89410000  1.0
  O  O230  1  0.98010000  0.14330000  0.79440000  1.0
  O  O231  1  0.86580000  0.19090000  0.89930000  1.0
  O  O232  1  0.43280000  0.67890000  0.46630000  1.0
  O  O233  1  0.54570000  0.69590000  0.59430000  1.0
  O  O234  1  0.47570000  0.78490000  0.89640000  1.0
  O  O235  1  0.37250000  0.84680000  0.99070000  1.0
  O  O236  1  0.98930000  0.36960000  0.71810000  1.0
  O  O237  1  0.84240000  0.32480000  0.63150000  1.0
  O  O238  1  0.25640000  0.69320000  0.64330000  1.0
  O  O239  1  0.06540000  0.71540000  0.58480000  1.0
  O  O240  1  0.73250000  0.21400000  0.70080000  1.0
  O  O241  1  0.57550000  0.18880000  0.60590000  1.0
  O  O242  1  0.48010000  0.85670000  0.70560000  1.0
  O  O243  1  0.36580000  0.80910000  0.60070000  1.0
  O  O244  1  0.93280000  0.32110000  0.03370000  1.0
  O  O245  1  0.04570000  0.30410000  0.90570000  1.0
  O  O246  1  0.97570000  0.21510000  0.60360000  1.0
  O  O247  1  0.87250000  0.15320000  0.50930000  1.0
  O  O248  1  0.51070000  0.36960000  0.21810000  1.0
  O  O249  1  0.65760000  0.32480000  0.13150000  1.0
  O  O250  1  0.24360000  0.69320000  0.14330000  1.0
  O  O251  1  0.43460000  0.71540000  0.08480000  1.0
  O  O252  1  0.76750000  0.21400000  0.20080000  1.0
  O  O253  1  0.92450000  0.18880000  0.10590000  1.0
  O  O254  1  0.01990000  0.85670000  0.20560000  1.0
  O  O255  1  0.13420000  0.80910000  0.10070000  1.0
  O  O256  1  0.56720000  0.32110000  0.53370000  1.0
  O  O257  1  0.45430000  0.30410000  0.40570000  1.0
  O  O258  1  0.52430000  0.21510000  0.10360000  1.0
  O  O259  1  0.62750000  0.15320000  0.00930000  1.0
  O  O260  1  0.01070000  0.63040000  0.28190000  1.0
  O  O261  1  0.15760000  0.67520000  0.36850000  1.0
  O  O262  1  0.74360000  0.30680000  0.35670000  1.0
  O  O263  1  0.93460000  0.28460000  0.41520000  1.0
  O  O264  1  0.26750000  0.78600000  0.29920000  1.0
  O  O265  1  0.42450000  0.81120000  0.39410000  1.0
  O  O266  1  0.51990000  0.14330000  0.29440000  1.0
  O  O267  1  0.63420000  0.19090000  0.39930000  1.0
  O  O268  1  0.06720000  0.67890000  0.96630000  1.0
  O  O269  1  0.95430000  0.69590000  0.09430000  1.0
  O  O270  1  0.02430000  0.78490000  0.39640000  1.0
  O  O271  1  0.12750000  0.84680000  0.49070000  1.0
