# generated using pymatgen
data_FeAg2H4(C4N3)2
_symmetry_space_group_name_H-M   'P 1'
_cell_length_a   7.38520000
_cell_length_b   13.29620000
_cell_length_c   14.70350000
_cell_angle_alpha   90.00000000
_cell_angle_beta   91.44100000
_cell_angle_gamma   90.00000000
_symmetry_Int_Tables_number   1
_chemical_formula_structural   FeAg2H4(C4N3)2
_chemical_formula_sum   'Fe4 Ag8 H16 C32 N24'
_cell_volume   1443.35499291
_cell_formula_units_Z   4
loop_
 _symmetry_equiv_pos_site_id
 _symmetry_equiv_pos_as_xyz
  1  'x, y, z'
loop_
 _atom_site_type_symbol
 _atom_site_label
 _atom_site_symmetry_multiplicity
 _atom_site_fract_x
 _atom_site_fract_y
 _atom_site_fract_z
 _atom_site_occupancy
  Fe  Fe0  1  0.50000000  0.50000000  0.00000000  1.0
  Fe  Fe1  1  0.00000000  0.00000000  0.00000000  1.0
  Fe  Fe2  1  0.00000000  0.00000000  0.50000000  1.0
  Fe  Fe3  1  0.50000000  0.50000000  0.50000000  1.0
  Ag  Ag4  1  0.73004000  0.24500000  0.74968000  1.0
  Ag  Ag5  1  0.97177000  0.44327000  0.77109000  1.0
  Ag  Ag6  1  0.76996000  0.74500000  0.25032000  1.0
  Ag  Ag7  1  0.52823000  0.94327000  0.22890000  1.0
  Ag  Ag8  1  0.26996000  0.75500000  0.25032000  1.0
  Ag  Ag9  1  0.02823000  0.55673000  0.22890000  1.0
  Ag  Ag10  1  0.23004000  0.25500000  0.74968000  1.0
  Ag  Ag11  1  0.47177000  0.05673000  0.77109000  1.0
  H  H12  1  0.43500000  0.26900000  0.01900000  1.0
  H  H13  1  0.44700000  0.14300000  0.12200000  1.0
  H  H14  1  0.52300000  0.18500000  0.27400000  1.0
  H  H15  1  0.53900000  0.46300000  0.20670000  1.0
  H  H16  1  0.06500000  0.76900000  0.98100000  1.0
  H  H17  1  0.05300000  0.64300000  0.87800000  1.0
  H  H18  1  0.97700000  0.68500000  0.72600000  1.0
  H  H19  1  0.96100000  0.96300000  0.79330000  1.0
  H  H20  1  0.56500000  0.73100000  0.98100000  1.0
  H  H21  1  0.55300000  0.85700000  0.87800000  1.0
  H  H22  1  0.47700000  0.81500000  0.72600000  1.0
  H  H23  1  0.46100000  0.53700000  0.79330000  1.0
  H  H24  1  0.93500000  0.23100000  0.01900000  1.0
  H  H25  1  0.94700000  0.35700000  0.12200000  1.0
  H  H26  1  0.02300000  0.31500000  0.27400000  1.0
  H  H27  1  0.03900000  0.03700000  0.20670000  1.0
  C  C28  1  0.66120000  0.33906000  0.85483000  1.0
  C  C29  1  0.14020000  0.44264000  0.88503000  1.0
  C  C30  1  0.45940000  0.28378000  0.07943000  1.0
  C  C31  1  0.47070000  0.20660000  0.14148000  1.0
  C  C32  1  0.50760000  0.23130000  0.23067000  1.0
  C  C33  1  0.51900000  0.39616000  0.19279000  1.0
  C  C34  1  0.80550000  0.15214000  0.64501000  1.0
  C  C35  1  0.81360000  0.47908000  0.65826000  1.0
  C  C36  1  0.83880000  0.83906000  0.14517000  1.0
  C  C37  1  0.35980000  0.94264000  0.11497000  1.0
  C  C38  1  0.04060000  0.78378000  0.92057000  1.0
  C  C39  1  0.02930000  0.70660000  0.85852000  1.0
  C  C40  1  0.99240000  0.73130000  0.76933000  1.0
  C  C41  1  0.98100000  0.89616000  0.80721000  1.0
  C  C42  1  0.69450000  0.65214000  0.35499000  1.0
  C  C43  1  0.68640000  0.97908000  0.34174000  1.0
  C  C44  1  0.33880000  0.66094000  0.14517000  1.0
  C  C45  1  0.85980000  0.55736000  0.11497000  1.0
  C  C46  1  0.54060000  0.71622000  0.92057000  1.0
  C  C47  1  0.52930000  0.79340000  0.85852000  1.0
  C  C48  1  0.49240000  0.76870000  0.76933000  1.0
  C  C49  1  0.48100000  0.60384000  0.80721000  1.0
  C  C50  1  0.19450000  0.84786000  0.35499000  1.0
  C  C51  1  0.18640000  0.52092000  0.34174000  1.0
  C  C52  1  0.16120000  0.16094000  0.85483000  1.0
  C  C53  1  0.64020000  0.05736000  0.88503000  1.0
  C  C54  1  0.95940000  0.21622000  0.07943000  1.0
  C  C55  1  0.97070000  0.29340000  0.14148000  1.0
  C  C56  1  0.00760000  0.26870000  0.23067000  1.0
  C  C57  1  0.01900000  0.10384000  0.19279000  1.0
  C  C58  1  0.30550000  0.34786000  0.64501000  1.0
  C  C59  1  0.31360000  0.02092000  0.65826000  1.0
  N  N60  1  0.62080000  0.39426000  0.91026000  1.0
  N  N61  1  0.24600000  0.45332000  0.94215000  1.0
  N  N62  1  0.48550000  0.37946000  0.10440000  1.0
  N  N63  1  0.53200000  0.32643000  0.25752000  1.0
  N  N64  1  0.85280000  0.09912000  0.58998000  1.0
  N  N65  1  0.71570000  0.49830000  0.59979000  1.0
  N  N66  1  0.87920000  0.89426000  0.08974000  1.0
  N  N67  1  0.25400000  0.95332000  0.05785000  1.0
  N  N68  1  0.01450000  0.87946000  0.89560000  1.0
  N  N69  1  0.96800000  0.82643000  0.74248000  1.0
  N  N70  1  0.64720000  0.59912000  0.41002000  1.0
  N  N71  1  0.78430000  0.99830000  0.40021000  1.0
  N  N72  1  0.37920000  0.60574000  0.08974000  1.0
  N  N73  1  0.75400000  0.54668000  0.05785000  1.0
  N  N74  1  0.51450000  0.62054000  0.89560000  1.0
  N  N75  1  0.46800000  0.67357000  0.74248000  1.0
  N  N76  1  0.14720000  0.90088000  0.41002000  1.0
  N  N77  1  0.28430000  0.50170000  0.40021000  1.0
  N  N78  1  0.12080000  0.10574000  0.91026000  1.0
  N  N79  1  0.74600000  0.04668000  0.94215000  1.0
  N  N80  1  0.98550000  0.12054000  0.10440000  1.0
  N  N81  1  0.03200000  0.17357000  0.25752000  1.0
  N  N82  1  0.35280000  0.40088000  0.58998000  1.0
  N  N83  1  0.21570000  0.00170000  0.59979000  1.0
