# generated using pymatgen
data_FeH4Au2(C4N3)2
_symmetry_space_group_name_H-M   'P 1'
_cell_length_a   7.22720000
_cell_length_b   13.30750000
_cell_length_c   14.61570000
_cell_angle_alpha   90.00000000
_cell_angle_beta   90.94400000
_cell_angle_gamma   90.00000000
_symmetry_Int_Tables_number   1
_chemical_formula_structural   FeH4Au2(C4N3)2
_chemical_formula_sum   'Fe4 H16 Au8 C32 N24'
_cell_volume   1405.48825166
_cell_formula_units_Z   4
loop_
 _symmetry_equiv_pos_site_id
 _symmetry_equiv_pos_as_xyz
  1  'x, y, z'
loop_
 _atom_site_type_symbol
 _atom_site_label
 _atom_site_symmetry_multiplicity
 _atom_site_fract_x
 _atom_site_fract_y
 _atom_site_fract_z
 _atom_site_occupancy
  Fe  Fe0  1  0.50000000  0.50000000  0.00000000  1.0
  Fe  Fe1  1  0.00000000  0.00000000  0.00000000  1.0
  Fe  Fe2  1  0.00000000  0.00000000  0.50000000  1.0
  Fe  Fe3  1  0.50000000  0.50000000  0.50000000  1.0
  H  H4  1  0.39700000  0.28900000  0.01900000  1.0
  H  H5  1  0.40500000  0.14800000  0.12800000  1.0
  H  H6  1  0.49800000  0.18400000  0.27500000  1.0
  H  H7  1  0.52400000  0.46500000  0.20200000  1.0
  H  H8  1  0.10300000  0.78900000  0.98100000  1.0
  H  H9  1  0.09500000  0.64800000  0.87200000  1.0
  H  H10  1  0.00200000  0.68400000  0.72500000  1.0
  H  H11  1  0.97600000  0.96500000  0.79800000  1.0
  H  H12  1  0.60300000  0.71100000  0.98100000  1.0
  H  H13  1  0.59500000  0.85200000  0.87200000  1.0
  H  H14  1  0.50200000  0.81600000  0.72500000  1.0
  H  H15  1  0.47600000  0.53500000  0.79800000  1.0
  H  H16  1  0.89700000  0.21100000  0.01900000  1.0
  H  H17  1  0.90500000  0.35200000  0.12800000  1.0
  H  H18  1  0.99800000  0.31600000  0.27500000  1.0
  H  H19  1  0.02400000  0.03500000  0.20200000  1.0
  Au  Au20  1  0.73177000  0.24511000  0.75096000  1.0
  Au  Au21  1  0.97768000  0.45569000  0.76825000  1.0
  Au  Au22  1  0.76823000  0.74511000  0.24904000  1.0
  Au  Au23  1  0.52232000  0.95569000  0.23175000  1.0
  Au  Au24  1  0.26823000  0.75489000  0.24904000  1.0
  Au  Au25  1  0.02232000  0.54431000  0.23175000  1.0
  Au  Au26  1  0.23177000  0.25489000  0.75096000  1.0
  Au  Au27  1  0.47768000  0.04431000  0.76825000  1.0
  C  C28  1  0.65840000  0.33310000  0.85420000  1.0
  C  C29  1  0.13570000  0.45170000  0.88110000  1.0
  C  C30  1  0.42990000  0.28980000  0.08150000  1.0
  C  C31  1  0.43600000  0.21230000  0.14430000  1.0
  C  C32  1  0.48150000  0.23600000  0.23300000  1.0
  C  C33  1  0.50540000  0.40030000  0.19450000  1.0
  C  C34  1  0.80730000  0.15730000  0.64750000  1.0
  C  C35  1  0.82150000  0.48020000  0.65920000  1.0
  C  C36  1  0.84160000  0.83310000  0.14580000  1.0
  C  C37  1  0.36430000  0.95170000  0.11890000  1.0
  C  C38  1  0.07010000  0.78980000  0.91850000  1.0
  C  C39  1  0.06400000  0.71230000  0.85570000  1.0
  C  C40  1  0.01850000  0.73600000  0.76700000  1.0
  C  C41  1  0.99460000  0.90030000  0.80550000  1.0
  C  C42  1  0.69270000  0.65730000  0.35250000  1.0
  C  C43  1  0.67850000  0.98020000  0.34080000  1.0
  C  C44  1  0.34160000  0.66690000  0.14580000  1.0
  C  C45  1  0.86430000  0.54830000  0.11890000  1.0
  C  C46  1  0.57010000  0.71020000  0.91850000  1.0
  C  C47  1  0.56400000  0.78770000  0.85570000  1.0
  C  C48  1  0.51850000  0.76400000  0.76700000  1.0
  C  C49  1  0.49460000  0.59970000  0.80550000  1.0
  C  C50  1  0.19270000  0.84270000  0.35250000  1.0
  C  C51  1  0.17850000  0.51980000  0.34080000  1.0
  C  C52  1  0.15840000  0.16690000  0.85420000  1.0
  C  C53  1  0.63570000  0.04830000  0.88110000  1.0
  C  C54  1  0.92990000  0.21020000  0.08150000  1.0
  C  C55  1  0.93600000  0.28770000  0.14430000  1.0
  C  C56  1  0.98150000  0.26400000  0.23300000  1.0
  C  C57  1  0.00540000  0.09970000  0.19450000  1.0
  C  C58  1  0.30730000  0.34270000  0.64750000  1.0
  C  C59  1  0.32150000  0.01980000  0.65920000  1.0
  N  N60  1  0.61570000  0.38610000  0.91210000  1.0
  N  N61  1  0.23630000  0.45860000  0.94120000  1.0
  N  N62  1  0.46690000  0.38500000  0.10660000  1.0
  N  N63  1  0.51500000  0.33040000  0.25930000  1.0
  N  N64  1  0.85410000  0.10510000  0.59110000  1.0
  N  N65  1  0.72290000  0.49740000  0.59780000  1.0
  N  N66  1  0.88430000  0.88610000  0.08790000  1.0
  N  N67  1  0.26370000  0.95860000  0.05880000  1.0
  N  N68  1  0.03310000  0.88500000  0.89340000  1.0
  N  N69  1  0.98500000  0.83040000  0.74070000  1.0
  N  N70  1  0.64590000  0.60510000  0.40890000  1.0
  N  N71  1  0.77710000  0.99740000  0.40220000  1.0
  N  N72  1  0.38430000  0.61390000  0.08790000  1.0
  N  N73  1  0.76370000  0.54140000  0.05880000  1.0
  N  N74  1  0.53310000  0.61500000  0.89340000  1.0
  N  N75  1  0.48500000  0.66960000  0.74070000  1.0
  N  N76  1  0.14590000  0.89490000  0.40890000  1.0
  N  N77  1  0.27710000  0.50260000  0.40220000  1.0
  N  N78  1  0.11570000  0.11390000  0.91210000  1.0
  N  N79  1  0.73630000  0.04140000  0.94120000  1.0
  N  N80  1  0.96690000  0.11500000  0.10660000  1.0
  N  N81  1  0.01500000  0.16960000  0.25930000  1.0
  N  N82  1  0.35410000  0.39490000  0.59110000  1.0
  N  N83  1  0.22290000  0.00260000  0.59780000  1.0
