# generated using pymatgen
data_V9Si4H16C8(N2O9)2
_symmetry_space_group_name_H-M   'P 1'
_cell_length_a   16.16900000
_cell_length_b   16.16900000
_cell_length_c   18.19900000
_cell_angle_alpha   90.00000000
_cell_angle_beta   90.00000000
_cell_angle_gamma   90.00000000
_symmetry_Int_Tables_number   1
_chemical_formula_structural   V9Si4H16C8(N2O9)2
_chemical_formula_sum   'V36 Si16 H64 C32 N16 O72'
_cell_volume   4757.88397364
_cell_formula_units_Z   4
loop_
 _symmetry_equiv_pos_site_id
 _symmetry_equiv_pos_as_xyz
  1  'x, y, z'
loop_
 _atom_site_type_symbol
 _atom_site_label
 _atom_site_symmetry_multiplicity
 _atom_site_fract_x
 _atom_site_fract_y
 _atom_site_fract_z
 _atom_site_occupancy
  V  V0  1  0.00420000  0.82246000  0.86407000  1.0
  V  V1  1  0.17532000  0.83103000  0.00010000  1.0
  V  V2  1  0.24685000  0.00457000  0.99245000  1.0
  V  V3  1  0.21390000  0.25140000  0.72758000  1.0
  V  V4  1  0.99580000  0.17754000  0.86407000  1.0
  V  V5  1  0.82468000  0.16897000  0.00010000  1.0
  V  V6  1  0.75315000  0.99543000  0.99245000  1.0
  V  V7  1  0.78610000  0.74860000  0.72758000  1.0
  V  V8  1  0.82246000  0.99580000  0.13593000  1.0
  V  V9  1  0.83103000  0.82468000  0.99990000  1.0
  V  V10  1  0.00457000  0.75315000  0.00755000  1.0
  V  V11  1  0.25140000  0.78610000  0.27242000  1.0
  V  V12  1  0.17754000  0.00420000  0.13593000  1.0
  V  V13  1  0.16897000  0.17532000  0.99990000  1.0
  V  V14  1  0.99543000  0.24685000  0.00755000  1.0
  V  V15  1  0.74860000  0.21390000  0.27242000  1.0
  V  V16  1  0.49580000  0.32246000  0.63593000  1.0
  V  V17  1  0.32468000  0.33103000  0.49990000  1.0
  V  V18  1  0.25315000  0.50457000  0.50755000  1.0
  V  V19  1  0.28610000  0.75140000  0.77242000  1.0
  V  V20  1  0.50420000  0.67754000  0.63593000  1.0
  V  V21  1  0.67532000  0.66897000  0.49990000  1.0
  V  V22  1  0.74685000  0.49543000  0.50755000  1.0
  V  V23  1  0.71390000  0.24860000  0.77242000  1.0
  V  V24  1  0.67754000  0.49580000  0.36407000  1.0
  V  V25  1  0.66897000  0.32468000  0.50010000  1.0
  V  V26  1  0.49543000  0.25315000  0.49245000  1.0
  V  V27  1  0.24860000  0.28610000  0.22758000  1.0
  V  V28  1  0.32246000  0.50420000  0.36407000  1.0
  V  V29  1  0.33103000  0.67532000  0.50010000  1.0
  V  V30  1  0.50457000  0.74685000  0.49245000  1.0
  V  V31  1  0.75140000  0.71390000  0.22758000  1.0
  V  V32  1  0.00000000  0.00000000  0.79698000  1.0
  V  V33  1  0.00000000  0.00000000  0.20302000  1.0
  V  V34  1  0.50000000  0.50000000  0.70302000  1.0
  V  V35  1  0.50000000  0.50000000  0.29698000  1.0
  Si  Si36  1  0.17700000  0.09300000  0.83770000  1.0
  Si  Si37  1  0.17990000  0.91460000  0.83780000  1.0
  Si  Si38  1  0.82300000  0.90700000  0.83770000  1.0
  Si  Si39  1  0.82010000  0.08540000  0.83780000  1.0
  Si  Si40  1  0.09300000  0.82300000  0.16230000  1.0
  Si  Si41  1  0.91460000  0.82010000  0.16220000  1.0
  Si  Si42  1  0.90700000  0.17700000  0.16230000  1.0
  Si  Si43  1  0.08540000  0.17990000  0.16220000  1.0
  Si  Si44  1  0.32300000  0.59300000  0.66230000  1.0
  Si  Si45  1  0.32010000  0.41460000  0.66220000  1.0
  Si  Si46  1  0.67700000  0.40700000  0.66230000  1.0
  Si  Si47  1  0.67990000  0.58540000  0.66220000  1.0
  Si  Si48  1  0.40700000  0.32300000  0.33770000  1.0
  Si  Si49  1  0.58540000  0.32010000  0.33780000  1.0
  Si  Si50  1  0.59300000  0.67700000  0.33770000  1.0
  Si  Si51  1  0.41460000  0.67990000  0.33780000  1.0
  H  H52  1  0.28880000  0.07300000  0.70690000  1.0
  H  H53  1  0.24350000  0.07820000  0.63120000  1.0
  H  H54  1  0.41530000  0.06260000  0.64620000  1.0
  H  H55  1  0.36970000  0.06720000  0.57080000  1.0
  H  H56  1  0.41790000  0.93570000  0.60810000  1.0
  H  H57  1  0.32900000  0.93990000  0.57520000  1.0
  H  H58  1  0.36920000  0.92810000  0.71330000  1.0
  H  H59  1  0.28020000  0.93520000  0.68220000  1.0
  H  H60  1  0.71120000  0.92700000  0.70690000  1.0
  H  H61  1  0.75650000  0.92180000  0.63120000  1.0
  H  H62  1  0.58470000  0.93740000  0.64620000  1.0
  H  H63  1  0.63030000  0.93280000  0.57080000  1.0
  H  H64  1  0.58210000  0.06430000  0.60810000  1.0
  H  H65  1  0.67100000  0.06010000  0.57520000  1.0
  H  H66  1  0.63080000  0.07190000  0.71330000  1.0
  H  H67  1  0.71980000  0.06480000  0.68220000  1.0
  H  H68  1  0.07300000  0.71120000  0.29310000  1.0
  H  H69  1  0.07820000  0.75650000  0.36880000  1.0
  H  H70  1  0.06260000  0.58470000  0.35380000  1.0
  H  H71  1  0.06720000  0.63030000  0.42920000  1.0
  H  H72  1  0.93570000  0.58210000  0.39190000  1.0
  H  H73  1  0.93990000  0.67100000  0.42480000  1.0
  H  H74  1  0.92810000  0.63080000  0.28670000  1.0
  H  H75  1  0.93520000  0.71980000  0.31780000  1.0
  H  H76  1  0.92700000  0.28880000  0.29310000  1.0
  H  H77  1  0.92180000  0.24350000  0.36880000  1.0
  H  H78  1  0.93740000  0.41530000  0.35380000  1.0
  H  H79  1  0.93280000  0.36970000  0.42920000  1.0
  H  H80  1  0.06430000  0.41790000  0.39190000  1.0
  H  H81  1  0.06010000  0.32900000  0.42480000  1.0
  H  H82  1  0.07190000  0.36920000  0.28670000  1.0
  H  H83  1  0.06480000  0.28020000  0.31780000  1.0
  H  H84  1  0.21120000  0.57300000  0.79310000  1.0
  H  H85  1  0.25650000  0.57820000  0.86880000  1.0
  H  H86  1  0.08470000  0.56260000  0.85380000  1.0
  H  H87  1  0.13030000  0.56720000  0.92920000  1.0
  H  H88  1  0.08210000  0.43570000  0.89190000  1.0
  H  H89  1  0.17100000  0.43990000  0.92480000  1.0
  H  H90  1  0.13080000  0.42810000  0.78670000  1.0
  H  H91  1  0.21980000  0.43520000  0.81780000  1.0
  H  H92  1  0.78880000  0.42700000  0.79310000  1.0
  H  H93  1  0.74350000  0.42180000  0.86880000  1.0
  H  H94  1  0.91530000  0.43740000  0.85380000  1.0
  H  H95  1  0.86970000  0.43280000  0.92920000  1.0
  H  H96  1  0.91790000  0.56430000  0.89190000  1.0
  H  H97  1  0.82900000  0.56010000  0.92480000  1.0
  H  H98  1  0.86920000  0.57190000  0.78670000  1.0
  H  H99  1  0.78020000  0.56480000  0.81780000  1.0
  H  H100  1  0.42700000  0.21120000  0.20690000  1.0
  H  H101  1  0.42180000  0.25650000  0.13120000  1.0
  H  H102  1  0.43740000  0.08470000  0.14620000  1.0
  H  H103  1  0.43280000  0.13030000  0.07080000  1.0
  H  H104  1  0.56430000  0.08210000  0.10810000  1.0
  H  H105  1  0.56010000  0.17100000  0.07520000  1.0
  H  H106  1  0.57190000  0.13080000  0.21330000  1.0
  H  H107  1  0.56480000  0.21980000  0.18220000  1.0
  H  H108  1  0.57300000  0.78880000  0.20690000  1.0
  H  H109  1  0.57820000  0.74350000  0.13120000  1.0
  H  H110  1  0.56260000  0.91530000  0.14620000  1.0
  H  H111  1  0.56720000  0.86970000  0.07080000  1.0
  H  H112  1  0.43570000  0.91790000  0.10810000  1.0
  H  H113  1  0.43990000  0.82900000  0.07520000  1.0
  H  H114  1  0.42810000  0.86920000  0.21330000  1.0
  H  H115  1  0.43520000  0.78020000  0.18220000  1.0
  C  C116  1  0.29400000  0.09290000  0.65680000  1.0
  C  C117  1  0.36490000  0.04710000  0.62100000  1.0
  C  C118  1  0.36200000  0.95470000  0.61770000  1.0
  C  C119  1  0.33500000  0.91290000  0.67200000  1.0
  C  C120  1  0.70600000  0.90710000  0.65680000  1.0
  C  C121  1  0.63510000  0.95290000  0.62100000  1.0
  C  C122  1  0.63800000  0.04530000  0.61770000  1.0
  C  C123  1  0.66500000  0.08710000  0.67200000  1.0
  C  C124  1  0.09290000  0.70600000  0.34320000  1.0
  C  C125  1  0.04710000  0.63510000  0.37900000  1.0
  C  C126  1  0.95470000  0.63800000  0.38230000  1.0
  C  C127  1  0.91290000  0.66500000  0.32800000  1.0
  C  C128  1  0.90710000  0.29400000  0.34320000  1.0
  C  C129  1  0.95290000  0.36490000  0.37900000  1.0
  C  C130  1  0.04530000  0.36200000  0.38230000  1.0
  C  C131  1  0.08710000  0.33500000  0.32800000  1.0
  C  C132  1  0.20600000  0.59290000  0.84320000  1.0
  C  C133  1  0.13510000  0.54710000  0.87900000  1.0
  C  C134  1  0.13800000  0.45470000  0.88230000  1.0
  C  C135  1  0.16500000  0.41290000  0.82800000  1.0
  C  C136  1  0.79400000  0.40710000  0.84320000  1.0
  C  C137  1  0.86490000  0.45290000  0.87900000  1.0
  C  C138  1  0.86200000  0.54530000  0.88230000  1.0
  C  C139  1  0.83500000  0.58710000  0.82800000  1.0
  C  C140  1  0.40710000  0.20600000  0.15680000  1.0
  C  C141  1  0.45290000  0.13510000  0.12100000  1.0
  C  C142  1  0.54530000  0.13800000  0.11770000  1.0
  C  C143  1  0.58710000  0.16500000  0.17200000  1.0
  C  C144  1  0.59290000  0.79400000  0.15680000  1.0
  C  C145  1  0.54710000  0.86490000  0.12100000  1.0
  C  C146  1  0.45470000  0.86200000  0.11770000  1.0
  C  C147  1  0.41290000  0.83500000  0.17200000  1.0
  N  N148  1  0.30000000  0.18470000  0.65890000  1.0
  N  N149  1  0.32570000  0.82610000  0.67640000  1.0
  N  N150  1  0.70000000  0.81530000  0.65890000  1.0
  N  N151  1  0.67430000  0.17390000  0.67640000  1.0
  N  N152  1  0.18470000  0.70000000  0.34110000  1.0
  N  N153  1  0.82610000  0.67430000  0.32360000  1.0
  N  N154  1  0.81530000  0.30000000  0.34110000  1.0
  N  N155  1  0.17390000  0.32570000  0.32360000  1.0
  N  N156  1  0.20000000  0.68470000  0.84110000  1.0
  N  N157  1  0.17430000  0.32610000  0.82360000  1.0
  N  N158  1  0.80000000  0.31530000  0.84110000  1.0
  N  N159  1  0.82570000  0.67390000  0.82360000  1.0
  N  N160  1  0.31530000  0.20000000  0.15890000  1.0
  N  N161  1  0.67390000  0.17430000  0.17640000  1.0
  N  N162  1  0.68470000  0.80000000  0.15890000  1.0
  N  N163  1  0.32610000  0.82570000  0.17640000  1.0
  O  O164  1  0.08480000  0.79740000  0.93600000  1.0
  O  O165  1  0.20880000  0.00250000  0.80560000  1.0
  O  O166  1  0.21840000  0.16670000  0.79720000  1.0
  O  O167  1  0.20680000  0.91420000  0.92550000  1.0
  O  O168  1  0.20020000  0.09150000  0.92400000  1.0
  O  O169  1  0.07800000  0.91380000  0.83610000  1.0
  O  O170  1  0.07420000  0.08870000  0.82740000  1.0
  O  O171  1  0.92540000  0.79280000  0.93950000  1.0
  O  O172  1  0.21820000  0.83740000  0.79360000  1.0
  O  O173  1  0.91520000  0.20260000  0.93600000  1.0
  O  O174  1  0.79120000  0.99750000  0.80560000  1.0
  O  O175  1  0.78160000  0.83330000  0.79720000  1.0
  O  O176  1  0.79320000  0.08580000  0.92550000  1.0
  O  O177  1  0.79980000  0.90850000  0.92400000  1.0
  O  O178  1  0.92200000  0.08620000  0.83610000  1.0
  O  O179  1  0.92580000  0.91130000  0.82740000  1.0
  O  O180  1  0.07460000  0.20720000  0.93950000  1.0
  O  O181  1  0.78180000  0.16260000  0.79360000  1.0
  O  O182  1  0.79740000  0.91520000  0.06400000  1.0
  O  O183  1  0.00250000  0.79120000  0.19440000  1.0
  O  O184  1  0.16670000  0.78160000  0.20280000  1.0
  O  O185  1  0.91420000  0.79320000  0.07450000  1.0
  O  O186  1  0.09150000  0.79980000  0.07600000  1.0
  O  O187  1  0.91380000  0.92200000  0.16390000  1.0
  O  O188  1  0.08870000  0.92580000  0.17260000  1.0
  O  O189  1  0.79280000  0.07460000  0.06050000  1.0
  O  O190  1  0.83740000  0.78180000  0.20640000  1.0
  O  O191  1  0.20260000  0.08480000  0.06400000  1.0
  O  O192  1  0.99750000  0.20880000  0.19440000  1.0
  O  O193  1  0.83330000  0.21840000  0.20280000  1.0
  O  O194  1  0.08580000  0.20680000  0.07450000  1.0
  O  O195  1  0.90850000  0.20020000  0.07600000  1.0
  O  O196  1  0.08620000  0.07800000  0.16390000  1.0
  O  O197  1  0.91130000  0.07420000  0.17260000  1.0
  O  O198  1  0.20720000  0.92540000  0.06050000  1.0
  O  O199  1  0.16260000  0.21820000  0.20640000  1.0
  O  O200  1  0.41520000  0.29740000  0.56400000  1.0
  O  O201  1  0.29120000  0.50250000  0.69440000  1.0
  O  O202  1  0.28160000  0.66666667  0.70280000  1.0
  O  O203  1  0.29320000  0.41420000  0.57450000  1.0
  O  O204  1  0.29980000  0.59150000  0.57600000  1.0
  O  O205  1  0.42200000  0.41380000  0.66390000  1.0
  O  O206  1  0.42580000  0.58870000  0.67260000  1.0
  O  O207  1  0.57460000  0.29280000  0.56050000  1.0
  O  O208  1  0.28180000  0.33740000  0.70640000  1.0
  O  O209  1  0.58480000  0.70260000  0.56400000  1.0
  O  O210  1  0.70880000  0.49750000  0.69440000  1.0
  O  O211  1  0.71840000  0.33333333  0.70280000  1.0
  O  O212  1  0.70680000  0.58580000  0.57450000  1.0
  O  O213  1  0.70020000  0.40850000  0.57600000  1.0
  O  O214  1  0.57800000  0.58620000  0.66390000  1.0
  O  O215  1  0.57420000  0.41130000  0.67260000  1.0
  O  O216  1  0.42540000  0.70720000  0.56050000  1.0
  O  O217  1  0.71820000  0.66260000  0.70640000  1.0
  O  O218  1  0.70260000  0.41520000  0.43600000  1.0
  O  O219  1  0.49750000  0.29120000  0.30560000  1.0
  O  O220  1  0.33333333  0.28160000  0.29720000  1.0
  O  O221  1  0.58580000  0.29320000  0.42550000  1.0
  O  O222  1  0.40850000  0.29980000  0.42400000  1.0
  O  O223  1  0.58620000  0.42200000  0.33610000  1.0
  O  O224  1  0.41130000  0.42580000  0.32740000  1.0
  O  O225  1  0.70720000  0.57460000  0.43950000  1.0
  O  O226  1  0.66260000  0.28180000  0.29360000  1.0
  O  O227  1  0.29740000  0.58480000  0.43600000  1.0
  O  O228  1  0.50250000  0.70880000  0.30560000  1.0
  O  O229  1  0.66666667  0.71840000  0.29720000  1.0
  O  O230  1  0.41420000  0.70680000  0.42550000  1.0
  O  O231  1  0.59150000  0.70020000  0.42400000  1.0
  O  O232  1  0.41380000  0.57800000  0.33610000  1.0
  O  O233  1  0.58870000  0.57420000  0.32740000  1.0
  O  O234  1  0.29280000  0.42540000  0.43950000  1.0
  O  O235  1  0.33740000  0.71820000  0.29360000  1.0
