# generated using pymatgen
data_Cd3H17C24N4O9
_symmetry_space_group_name_H-M   'P 1'
_cell_length_a   19.70700000
_cell_length_b   18.17540000
_cell_length_c   12.60850000
_cell_angle_alpha   90.00000000
_cell_angle_beta   90.00000000
_cell_angle_gamma   90.00000000
_symmetry_Int_Tables_number   1
_chemical_formula_structural   Cd3H17C24N4O9
_chemical_formula_sum   'Cd12 H68 C96 N16 O36'
_cell_volume   4516.14541045
_cell_formula_units_Z   4
loop_
 _symmetry_equiv_pos_site_id
 _symmetry_equiv_pos_as_xyz
  1  'x, y, z'
loop_
 _atom_site_type_symbol
 _atom_site_label
 _atom_site_symmetry_multiplicity
 _atom_site_fract_x
 _atom_site_fract_y
 _atom_site_fract_z
 _atom_site_occupancy
  Cd  Cd0  1  0.15888000  0.16339000  0.21163000  1.0
  Cd  Cd1  1  0.15888000  0.66339000  0.71163000  1.0
  Cd  Cd2  1  0.84112000  0.83661000  0.21163000  1.0
  Cd  Cd3  1  0.84112000  0.33661000  0.71163000  1.0
  Cd  Cd4  1  0.65888000  0.83661000  0.21163000  1.0
  Cd  Cd5  1  0.65888000  0.33661000  0.71163000  1.0
  Cd  Cd6  1  0.34112000  0.16339000  0.21163000  1.0
  Cd  Cd7  1  0.34112000  0.66339000  0.71163000  1.0
  Cd  Cd8  1  0.25000000  0.14500000  0.94683000  1.0
  Cd  Cd9  1  0.25000000  0.64500000  0.44683000  1.0
  Cd  Cd10  1  0.75000000  0.85500000  0.94683000  1.0
  Cd  Cd11  1  0.75000000  0.35500000  0.44683000  1.0
  H  H12  1  0.03320000  0.14720000  0.80200000  1.0
  H  H13  1  0.94550000  0.20180000  0.71050000  1.0
  H  H14  1  0.94240000  0.37020000  0.91080000  1.0
  H  H15  1  0.02830000  0.31550000  0.01110000  1.0
  H  H16  1  0.15190000  0.14770000  0.73980000  1.0
  H  H17  1  0.14840000  0.12340000  0.55900000  1.0
  H  H18  1  0.34730000  0.00960000  0.89850000  1.0
  H  H19  1  0.35070000  0.89210000  0.82880000  1.0
  H  H20  1  0.03320000  0.64720000  0.30200000  1.0
  H  H21  1  0.94550000  0.70180000  0.21050000  1.0
  H  H22  1  0.94240000  0.87020000  0.41080000  1.0
  H  H23  1  0.02830000  0.81550000  0.51110000  1.0
  H  H24  1  0.15190000  0.64770000  0.23980000  1.0
  H  H25  1  0.14840000  0.62340000  0.05900000  1.0
  H  H26  1  0.34730000  0.50960000  0.39850000  1.0
  H  H27  1  0.35070000  0.39210000  0.32880000  1.0
  H  H28  1  0.96680000  0.85280000  0.80200000  1.0
  H  H29  1  0.05450000  0.79820000  0.71050000  1.0
  H  H30  1  0.05760000  0.62980000  0.91080000  1.0
  H  H31  1  0.97170000  0.68450000  0.01110000  1.0
  H  H32  1  0.84810000  0.85230000  0.73980000  1.0
  H  H33  1  0.85160000  0.87660000  0.55900000  1.0
  H  H34  1  0.65270000  0.99040000  0.89850000  1.0
  H  H35  1  0.64930000  0.10790000  0.82880000  1.0
  H  H36  1  0.96680000  0.35280000  0.30200000  1.0
  H  H37  1  0.05450000  0.29820000  0.21050000  1.0
  H  H38  1  0.05760000  0.12980000  0.41080000  1.0
  H  H39  1  0.97170000  0.18450000  0.51110000  1.0
  H  H40  1  0.84810000  0.35230000  0.23980000  1.0
  H  H41  1  0.85160000  0.37660000  0.05900000  1.0
  H  H42  1  0.65270000  0.49040000  0.39850000  1.0
  H  H43  1  0.64930000  0.60790000  0.32880000  1.0
  H  H44  1  0.53320000  0.85280000  0.80200000  1.0
  H  H45  1  0.44550000  0.79820000  0.71050000  1.0
  H  H46  1  0.44240000  0.62980000  0.91080000  1.0
  H  H47  1  0.52830000  0.68450000  0.01110000  1.0
  H  H48  1  0.65190000  0.85230000  0.73980000  1.0
  H  H49  1  0.64840000  0.87660000  0.55900000  1.0
  H  H50  1  0.84730000  0.99040000  0.89850000  1.0
  H  H51  1  0.85070000  0.10790000  0.82880000  1.0
  H  H52  1  0.53320000  0.35280000  0.30200000  1.0
  H  H53  1  0.44550000  0.29820000  0.21050000  1.0
  H  H54  1  0.44240000  0.12980000  0.41080000  1.0
  H  H55  1  0.52830000  0.18450000  0.51110000  1.0
  H  H56  1  0.65190000  0.35230000  0.23980000  1.0
  H  H57  1  0.64840000  0.37660000  0.05900000  1.0
  H  H58  1  0.84730000  0.49040000  0.39850000  1.0
  H  H59  1  0.85070000  0.60790000  0.32880000  1.0
  H  H60  1  0.46680000  0.14720000  0.80200000  1.0
  H  H61  1  0.55450000  0.20180000  0.71050000  1.0
  H  H62  1  0.55760000  0.37020000  0.91080000  1.0
  H  H63  1  0.47170000  0.31550000  0.01110000  1.0
  H  H64  1  0.34810000  0.14770000  0.73980000  1.0
  H  H65  1  0.35160000  0.12340000  0.55900000  1.0
  H  H66  1  0.15270000  0.00960000  0.89850000  1.0
  H  H67  1  0.14930000  0.89210000  0.82880000  1.0
  H  H68  1  0.46680000  0.64720000  0.30200000  1.0
  H  H69  1  0.55450000  0.70180000  0.21050000  1.0
  H  H70  1  0.55760000  0.87020000  0.41080000  1.0
  H  H71  1  0.47170000  0.81550000  0.51110000  1.0
  H  H72  1  0.34810000  0.64770000  0.23980000  1.0
  H  H73  1  0.35160000  0.62340000  0.05900000  1.0
  H  H74  1  0.15270000  0.50960000  0.39850000  1.0
  H  H75  1  0.14930000  0.39210000  0.32880000  1.0
  H  H76  1  0.25000000  0.06870000  0.13040000  1.0
  H  H77  1  0.25000000  0.56870000  0.63040000  1.0
  H  H78  1  0.75000000  0.93130000  0.13040000  1.0
  H  H79  1  0.75000000  0.43130000  0.63040000  1.0
  C  C80  1  0.09770000  0.19290000  0.97860000  1.0
  C  C81  1  0.03950000  0.22460000  0.91560000  1.0
  C  C82  1  0.01470000  0.19230000  0.82640000  1.0
  C  C83  1  0.96280000  0.22550000  0.77210000  1.0
  C  C84  1  0.96030000  0.32400000  0.88950000  1.0
  C  C85  1  0.01190000  0.29200000  0.94880000  1.0
  C  C86  1  0.19350000  0.14320000  0.70230000  1.0
  C  C87  1  0.19100000  0.13070000  0.59290000  1.0
  C  C88  1  0.30560000  0.98560000  0.88360000  1.0
  C  C89  1  0.30840000  0.91550000  0.84120000  1.0
  C  C90  1  0.09770000  0.69290000  0.47860000  1.0
  C  C91  1  0.03950000  0.72460000  0.41560000  1.0
  C  C92  1  0.01470000  0.69230000  0.32640000  1.0
  C  C93  1  0.96280000  0.72550000  0.27210000  1.0
  C  C94  1  0.96030000  0.82400000  0.38950000  1.0
  C  C95  1  0.01190000  0.79200000  0.44880000  1.0
  C  C96  1  0.19350000  0.64320000  0.20230000  1.0
  C  C97  1  0.19100000  0.63070000  0.09290000  1.0
  C  C98  1  0.30560000  0.48560000  0.38360000  1.0
  C  C99  1  0.30840000  0.41550000  0.34120000  1.0
  C  C100  1  0.90230000  0.80710000  0.97860000  1.0
  C  C101  1  0.96050000  0.77540000  0.91560000  1.0
  C  C102  1  0.98530000  0.80770000  0.82640000  1.0
  C  C103  1  0.03720000  0.77450000  0.77210000  1.0
  C  C104  1  0.03970000  0.67600000  0.88950000  1.0
  C  C105  1  0.98810000  0.70800000  0.94880000  1.0
  C  C106  1  0.80650000  0.85680000  0.70230000  1.0
  C  C107  1  0.80900000  0.86930000  0.59290000  1.0
  C  C108  1  0.69440000  0.01440000  0.88360000  1.0
  C  C109  1  0.69160000  0.08450000  0.84120000  1.0
  C  C110  1  0.90230000  0.30710000  0.47860000  1.0
  C  C111  1  0.96050000  0.27540000  0.41560000  1.0
  C  C112  1  0.98530000  0.30770000  0.32640000  1.0
  C  C113  1  0.03720000  0.27450000  0.27210000  1.0
  C  C114  1  0.03970000  0.17600000  0.38950000  1.0
  C  C115  1  0.98810000  0.20800000  0.44880000  1.0
  C  C116  1  0.80650000  0.35680000  0.20230000  1.0
  C  C117  1  0.80900000  0.36930000  0.09290000  1.0
  C  C118  1  0.69440000  0.51440000  0.38360000  1.0
  C  C119  1  0.69160000  0.58450000  0.34120000  1.0
  C  C120  1  0.59770000  0.80710000  0.97860000  1.0
  C  C121  1  0.53950000  0.77540000  0.91560000  1.0
  C  C122  1  0.51470000  0.80770000  0.82640000  1.0
  C  C123  1  0.46280000  0.77450000  0.77210000  1.0
  C  C124  1  0.46030000  0.67600000  0.88950000  1.0
  C  C125  1  0.51190000  0.70800000  0.94880000  1.0
  C  C126  1  0.69350000  0.85680000  0.70230000  1.0
  C  C127  1  0.69100000  0.86930000  0.59290000  1.0
  C  C128  1  0.80560000  0.01440000  0.88360000  1.0
  C  C129  1  0.80840000  0.08450000  0.84120000  1.0
  C  C130  1  0.59770000  0.30710000  0.47860000  1.0
  C  C131  1  0.53950000  0.27540000  0.41560000  1.0
  C  C132  1  0.51470000  0.30770000  0.32640000  1.0
  C  C133  1  0.46280000  0.27450000  0.27210000  1.0
  C  C134  1  0.46030000  0.17600000  0.38950000  1.0
  C  C135  1  0.51190000  0.20800000  0.44880000  1.0
  C  C136  1  0.69350000  0.35680000  0.20230000  1.0
  C  C137  1  0.69100000  0.36930000  0.09290000  1.0
  C  C138  1  0.80560000  0.51440000  0.38360000  1.0
  C  C139  1  0.80840000  0.58450000  0.34120000  1.0
  C  C140  1  0.40230000  0.19290000  0.97860000  1.0
  C  C141  1  0.46050000  0.22460000  0.91560000  1.0
  C  C142  1  0.48530000  0.19230000  0.82640000  1.0
  C  C143  1  0.53720000  0.22550000  0.77210000  1.0
  C  C144  1  0.53970000  0.32400000  0.88950000  1.0
  C  C145  1  0.48810000  0.29200000  0.94880000  1.0
  C  C146  1  0.30650000  0.14320000  0.70230000  1.0
  C  C147  1  0.30900000  0.13070000  0.59290000  1.0
  C  C148  1  0.19440000  0.98560000  0.88360000  1.0
  C  C149  1  0.19160000  0.91550000  0.84120000  1.0
  C  C150  1  0.40230000  0.69290000  0.47860000  1.0
  C  C151  1  0.46050000  0.72460000  0.41560000  1.0
  C  C152  1  0.48530000  0.69230000  0.32640000  1.0
  C  C153  1  0.53720000  0.72550000  0.27210000  1.0
  C  C154  1  0.53970000  0.82400000  0.38950000  1.0
  C  C155  1  0.48810000  0.79200000  0.44880000  1.0
  C  C156  1  0.30650000  0.64320000  0.20230000  1.0
  C  C157  1  0.30900000  0.63070000  0.09290000  1.0
  C  C158  1  0.19440000  0.48560000  0.38360000  1.0
  C  C159  1  0.19160000  0.41550000  0.34120000  1.0
  C  C160  1  0.25000000  0.12890000  0.53390000  1.0
  C  C161  1  0.25000000  0.12150000  0.41520000  1.0
  C  C162  1  0.25000000  0.88110000  0.81790000  1.0
  C  C163  1  0.25000000  0.80590000  0.76660000  1.0
  C  C164  1  0.25000000  0.62890000  0.03390000  1.0
  C  C165  1  0.25000000  0.62150000  0.91520000  1.0
  C  C166  1  0.25000000  0.38110000  0.31790000  1.0
  C  C167  1  0.25000000  0.30590000  0.26660000  1.0
  C  C168  1  0.75000000  0.87110000  0.53390000  1.0
  C  C169  1  0.75000000  0.87850000  0.41520000  1.0
  C  C170  1  0.75000000  0.11890000  0.81790000  1.0
  C  C171  1  0.75000000  0.19410000  0.76660000  1.0
  C  C172  1  0.75000000  0.37110000  0.03390000  1.0
  C  C173  1  0.75000000  0.37850000  0.91520000  1.0
  C  C174  1  0.75000000  0.61890000  0.31790000  1.0
  C  C175  1  0.75000000  0.69410000  0.26660000  1.0
  N  N176  1  0.93480000  0.29080000  0.80220000  1.0
  N  N177  1  0.93480000  0.79080000  0.30220000  1.0
  N  N178  1  0.06520000  0.70920000  0.80220000  1.0
  N  N179  1  0.06520000  0.20920000  0.30220000  1.0
  N  N180  1  0.43480000  0.70920000  0.80220000  1.0
  N  N181  1  0.43480000  0.20920000  0.30220000  1.0
  N  N182  1  0.56520000  0.29080000  0.80220000  1.0
  N  N183  1  0.56520000  0.79080000  0.30220000  1.0
  N  N184  1  0.25000000  0.14900000  0.75550000  1.0
  N  N185  1  0.25000000  0.02050000  0.90430000  1.0
  N  N186  1  0.25000000  0.64900000  0.25550000  1.0
  N  N187  1  0.25000000  0.52050000  0.40430000  1.0
  N  N188  1  0.75000000  0.85100000  0.75550000  1.0
  N  N189  1  0.75000000  0.97950000  0.90430000  1.0
  N  N190  1  0.75000000  0.35100000  0.25550000  1.0
  N  N191  1  0.75000000  0.47950000  0.40430000  1.0
  O  O192  1  0.13360000  0.14660000  0.93150000  1.0
  O  O193  1  0.10580000  0.21430000  0.07180000  1.0
  O  O194  1  0.19360000  0.11620000  0.37150000  1.0
  O  O195  1  0.30440000  0.77840000  0.74900000  1.0
  O  O196  1  0.13360000  0.64660000  0.43150000  1.0
  O  O197  1  0.10580000  0.71430000  0.57180000  1.0
  O  O198  1  0.19360000  0.61620000  0.87150000  1.0
  O  O199  1  0.30440000  0.27840000  0.24900000  1.0
  O  O200  1  0.86640000  0.85340000  0.93150000  1.0
  O  O201  1  0.89420000  0.78570000  0.07180000  1.0
  O  O202  1  0.80640000  0.88380000  0.37150000  1.0
  O  O203  1  0.69560000  0.22160000  0.74900000  1.0
  O  O204  1  0.86640000  0.35340000  0.43150000  1.0
  O  O205  1  0.89420000  0.28570000  0.57180000  1.0
  O  O206  1  0.80640000  0.38380000  0.87150000  1.0
  O  O207  1  0.69560000  0.72160000  0.24900000  1.0
  O  O208  1  0.63360000  0.85340000  0.93150000  1.0
  O  O209  1  0.60580000  0.78570000  0.07180000  1.0
  O  O210  1  0.69360000  0.88380000  0.37150000  1.0
  O  O211  1  0.80440000  0.22160000  0.74900000  1.0
  O  O212  1  0.63360000  0.35340000  0.43150000  1.0
  O  O213  1  0.60580000  0.28570000  0.57180000  1.0
  O  O214  1  0.69360000  0.38380000  0.87150000  1.0
  O  O215  1  0.80440000  0.72160000  0.24900000  1.0
  O  O216  1  0.36640000  0.14660000  0.93150000  1.0
  O  O217  1  0.39420000  0.21430000  0.07180000  1.0
  O  O218  1  0.30640000  0.11620000  0.37150000  1.0
  O  O219  1  0.19560000  0.77840000  0.74900000  1.0
  O  O220  1  0.36640000  0.64660000  0.43150000  1.0
  O  O221  1  0.39420000  0.71430000  0.57180000  1.0
  O  O222  1  0.30640000  0.61620000  0.87150000  1.0
  O  O223  1  0.19560000  0.27840000  0.24900000  1.0
  O  O224  1  0.25000000  0.12340000  0.12250000  1.0
  O  O225  1  0.25000000  0.62340000  0.62250000  1.0
  O  O226  1  0.75000000  0.87660000  0.12250000  1.0
  O  O227  1  0.75000000  0.37660000  0.62250000  1.0
