# generated using pymatgen
data_Cd3H24C40(N4Cl)2
_symmetry_space_group_name_H-M   'P 1'
_cell_length_a   26.06700000
_cell_length_b   21.16880000
_cell_length_c   7.63540000
_cell_angle_alpha   90.00000000
_cell_angle_beta   90.00000000
_cell_angle_gamma   90.00000000
_symmetry_Int_Tables_number   1
_chemical_formula_structural   Cd3H24C40(N4Cl)2
_chemical_formula_sum   'Cd12 H96 C160 N32 Cl8'
_cell_volume   4213.26800464
_cell_formula_units_Z   4
loop_
 _symmetry_equiv_pos_site_id
 _symmetry_equiv_pos_as_xyz
  1  'x, y, z'
loop_
 _atom_site_type_symbol
 _atom_site_label
 _atom_site_symmetry_multiplicity
 _atom_site_fract_x
 _atom_site_fract_y
 _atom_site_fract_z
 _atom_site_occupancy
  Cd  Cd0  1  0.49826000  0.52715000  0.46004000  1.0
  Cd  Cd1  1  0.00174000  0.47285000  0.96004000  1.0
  Cd  Cd2  1  0.50174000  0.02715000  0.53996000  1.0
  Cd  Cd3  1  0.99826000  0.97285000  0.03996000  1.0
  Cd  Cd4  1  0.50174000  0.47285000  0.53996000  1.0
  Cd  Cd5  1  0.99826000  0.52715000  0.03996000  1.0
  Cd  Cd6  1  0.49826000  0.97285000  0.46004000  1.0
  Cd  Cd7  1  0.00174000  0.02715000  0.96004000  1.0
  Cd  Cd8  1  0.76912000  0.75000000  0.63947000  1.0
  Cd  Cd9  1  0.73088000  0.25000000  0.13947000  1.0
  Cd  Cd10  1  0.23088000  0.25000000  0.36053000  1.0
  Cd  Cd11  1  0.26912000  0.75000000  0.86053000  1.0
  H  H12  1  0.68380000  0.46840000  0.25190000  1.0
  H  H13  1  0.69750000  0.53370000  0.51690000  1.0
  H  H14  1  0.57350000  0.64160000  0.99370000  1.0
  H  H15  1  0.48040000  0.63770000  0.05640000  1.0
  H  H16  1  0.67330000  0.65240000  0.59190000  1.0
  H  H17  1  0.76020000  0.67450000  0.00950000  1.0
  H  H18  1  0.71270000  0.60060000  0.16390000  1.0
  H  H19  1  0.64360000  0.55000000  0.02480000  1.0
  H  H20  1  0.64870000  0.35470000  0.23290000  1.0
  H  H21  1  0.69770000  0.31460000  0.75850000  1.0
  H  H22  1  0.64000000  0.38520000  0.63650000  1.0
  H  H23  1  0.58570000  0.44400000  0.81880000  1.0
  H  H24  1  0.81620000  0.53160000  0.75190000  1.0
  H  H25  1  0.80250000  0.46630000  0.01690000  1.0
  H  H26  1  0.92650000  0.35840000  0.49370000  1.0
  H  H27  1  0.01960000  0.36230000  0.55640000  1.0
  H  H28  1  0.82670000  0.34760000  0.09190000  1.0
  H  H29  1  0.73980000  0.32550000  0.50950000  1.0
  H  H30  1  0.78730000  0.39940000  0.66390000  1.0
  H  H31  1  0.85640000  0.45000000  0.52480000  1.0
  H  H32  1  0.85130000  0.64530000  0.73290000  1.0
  H  H33  1  0.80230000  0.68540000  0.25850000  1.0
  H  H34  1  0.86000000  0.61480000  0.13650000  1.0
  H  H35  1  0.91430000  0.55600000  0.31880000  1.0
  H  H36  1  0.31620000  0.96840000  0.74810000  1.0
  H  H37  1  0.30250000  0.03370000  0.48310000  1.0
  H  H38  1  0.42650000  0.14160000  0.00630000  1.0
  H  H39  1  0.51960000  0.13770000  0.94360000  1.0
  H  H40  1  0.32670000  0.15240000  0.40810000  1.0
  H  H41  1  0.23980000  0.17450000  0.99050000  1.0
  H  H42  1  0.28730000  0.10060000  0.83610000  1.0
  H  H43  1  0.35640000  0.05000000  0.97520000  1.0
  H  H44  1  0.35130000  0.85470000  0.76710000  1.0
  H  H45  1  0.30230000  0.81460000  0.24150000  1.0
  H  H46  1  0.36000000  0.88520000  0.36350000  1.0
  H  H47  1  0.41430000  0.94400000  0.18120000  1.0
  H  H48  1  0.18380000  0.03160000  0.24810000  1.0
  H  H49  1  0.19750000  0.96630000  0.98310000  1.0
  H  H50  1  0.07350000  0.85840000  0.50630000  1.0
  H  H51  1  0.98040000  0.86230000  0.44360000  1.0
  H  H52  1  0.17330000  0.84760000  0.90810000  1.0
  H  H53  1  0.26020000  0.82550000  0.49050000  1.0
  H  H54  1  0.21270000  0.89940000  0.33610000  1.0
  H  H55  1  0.14360000  0.95000000  0.47520000  1.0
  H  H56  1  0.14870000  0.14530000  0.26710000  1.0
  H  H57  1  0.19770000  0.18540000  0.74150000  1.0
  H  H58  1  0.14000000  0.11480000  0.86350000  1.0
  H  H59  1  0.08570000  0.05600000  0.68120000  1.0
  H  H60  1  0.31620000  0.53160000  0.74810000  1.0
  H  H61  1  0.30250000  0.46630000  0.48310000  1.0
  H  H62  1  0.42650000  0.35840000  0.00630000  1.0
  H  H63  1  0.51960000  0.36230000  0.94360000  1.0
  H  H64  1  0.32670000  0.34760000  0.40810000  1.0
  H  H65  1  0.23980000  0.32550000  0.99050000  1.0
  H  H66  1  0.28730000  0.39940000  0.83610000  1.0
  H  H67  1  0.35640000  0.45000000  0.97520000  1.0
  H  H68  1  0.35130000  0.64530000  0.76710000  1.0
  H  H69  1  0.30230000  0.68540000  0.24150000  1.0
  H  H70  1  0.36000000  0.61480000  0.36350000  1.0
  H  H71  1  0.41430000  0.55600000  0.18120000  1.0
  H  H72  1  0.18380000  0.46840000  0.24810000  1.0
  H  H73  1  0.19750000  0.53370000  0.98310000  1.0
  H  H74  1  0.07350000  0.64160000  0.50630000  1.0
  H  H75  1  0.98040000  0.63770000  0.44360000  1.0
  H  H76  1  0.17330000  0.65240000  0.90810000  1.0
  H  H77  1  0.26020000  0.67450000  0.49050000  1.0
  H  H78  1  0.21270000  0.60060000  0.33610000  1.0
  H  H79  1  0.14360000  0.55000000  0.47520000  1.0
  H  H80  1  0.14870000  0.35470000  0.26710000  1.0
  H  H81  1  0.19770000  0.31460000  0.74150000  1.0
  H  H82  1  0.14000000  0.38520000  0.86350000  1.0
  H  H83  1  0.08570000  0.44400000  0.68120000  1.0
  H  H84  1  0.68380000  0.03160000  0.25190000  1.0
  H  H85  1  0.69750000  0.96630000  0.51690000  1.0
  H  H86  1  0.57350000  0.85840000  0.99370000  1.0
  H  H87  1  0.48040000  0.86230000  0.05640000  1.0
  H  H88  1  0.67330000  0.84760000  0.59190000  1.0
  H  H89  1  0.76020000  0.82550000  0.00950000  1.0
  H  H90  1  0.71270000  0.89940000  0.16390000  1.0
  H  H91  1  0.64360000  0.95000000  0.02480000  1.0
  H  H92  1  0.64870000  0.14530000  0.23290000  1.0
  H  H93  1  0.69770000  0.18540000  0.75850000  1.0
  H  H94  1  0.64000000  0.11480000  0.63650000  1.0
  H  H95  1  0.58570000  0.05600000  0.81880000  1.0
  H  H96  1  0.81620000  0.96840000  0.75190000  1.0
  H  H97  1  0.80250000  0.03370000  0.01690000  1.0
  H  H98  1  0.92650000  0.14160000  0.49370000  1.0
  H  H99  1  0.01960000  0.13770000  0.55640000  1.0
  H  H100  1  0.82670000  0.15240000  0.09190000  1.0
  H  H101  1  0.73980000  0.17450000  0.50950000  1.0
  H  H102  1  0.78730000  0.10060000  0.66390000  1.0
  H  H103  1  0.85640000  0.05000000  0.52480000  1.0
  H  H104  1  0.85130000  0.85470000  0.73290000  1.0
  H  H105  1  0.80230000  0.81460000  0.25850000  1.0
  H  H106  1  0.86000000  0.88520000  0.13650000  1.0
  H  H107  1  0.91430000  0.94400000  0.31880000  1.0
  C  C108  1  0.60321000  0.47407000  0.30940000  1.0
  C  C109  1  0.65789000  0.48403000  0.32790000  1.0
  C  C110  1  0.66543000  0.51959000  0.47270000  1.0
  C  C111  1  0.61600000  0.53215000  0.54720000  1.0
  C  C112  1  0.60621000  0.56670000  0.70320000  1.0
  C  C113  1  0.55813000  0.57540000  0.78600000  1.0
  C  C114  1  0.54860000  0.61725000  0.93280000  1.0
  C  C115  1  0.49780000  0.61516000  0.96680000  1.0
  C  C116  1  0.47490000  0.57263000  0.84270000  1.0
  C  C117  1  0.57842000  0.43924000  0.17660000  1.0
  C  C118  1  0.65116000  0.59628000  0.79120000  1.0
  C  C119  1  0.68128000  0.64140000  0.70940000  1.0
  C  C120  1  0.73200000  0.65450000  0.95330000  1.0
  C  C121  1  0.70415000  0.61050000  0.04610000  1.0
  C  C122  1  0.66325000  0.58080000  0.96380000  1.0
  C  C123  1  0.61237000  0.40620000  0.04820000  1.0
  C  C124  1  0.64711000  0.36178000  0.11010000  1.0
  C  C125  1  0.67552000  0.33784000  0.83350000  1.0
  C  C126  1  0.64145000  0.38000000  0.76000000  1.0
  C  C127  1  0.60942000  0.41471000  0.86740000  1.0
  C  C128  1  0.89679000  0.52593000  0.80940000  1.0
  C  C129  1  0.84211000  0.51597000  0.82790000  1.0
  C  C130  1  0.83457000  0.48041000  0.97270000  1.0
  C  C131  1  0.88400000  0.46785000  0.04720000  1.0
  C  C132  1  0.89379000  0.43330000  0.20320000  1.0
  C  C133  1  0.94187000  0.42460000  0.28600000  1.0
  C  C134  1  0.95140000  0.38275000  0.43280000  1.0
  C  C135  1  0.00220000  0.38484000  0.46680000  1.0
  C  C136  1  0.02510000  0.42737000  0.34270000  1.0
  C  C137  1  0.92158000  0.56076000  0.67660000  1.0
  C  C138  1  0.84884000  0.40372000  0.29120000  1.0
  C  C139  1  0.81872000  0.35860000  0.20940000  1.0
  C  C140  1  0.76800000  0.34550000  0.45330000  1.0
  C  C141  1  0.79585000  0.38950000  0.54610000  1.0
  C  C142  1  0.83675000  0.41920000  0.46380000  1.0
  C  C143  1  0.88763000  0.59380000  0.54820000  1.0
  C  C144  1  0.85289000  0.63822000  0.61010000  1.0
  C  C145  1  0.82448000  0.66216000  0.33350000  1.0
  C  C146  1  0.85855000  0.62000000  0.26000000  1.0
  C  C147  1  0.89058000  0.58529000  0.36740000  1.0
  C  C148  1  0.39679000  0.97407000  0.69060000  1.0
  C  C149  1  0.34211000  0.98403000  0.67210000  1.0
  C  C150  1  0.33457000  0.01959000  0.52730000  1.0
  C  C151  1  0.38400000  0.03215000  0.45280000  1.0
  C  C152  1  0.39379000  0.06670000  0.29680000  1.0
  C  C153  1  0.44187000  0.07540000  0.21400000  1.0
  C  C154  1  0.45140000  0.11725000  0.06720000  1.0
  C  C155  1  0.50220000  0.11516000  0.03320000  1.0
  C  C156  1  0.52510000  0.07263000  0.15730000  1.0
  C  C157  1  0.42158000  0.93924000  0.82340000  1.0
  C  C158  1  0.34884000  0.09628000  0.20880000  1.0
  C  C159  1  0.31872000  0.14140000  0.29060000  1.0
  C  C160  1  0.26800000  0.15450000  0.04670000  1.0
  C  C161  1  0.29585000  0.11050000  0.95390000  1.0
  C  C162  1  0.33675000  0.08080000  0.03620000  1.0
  C  C163  1  0.38763000  0.90620000  0.95180000  1.0
  C  C164  1  0.35289000  0.86178000  0.88990000  1.0
  C  C165  1  0.32448000  0.83784000  0.16650000  1.0
  C  C166  1  0.35855000  0.88000000  0.24000000  1.0
  C  C167  1  0.39058000  0.91471000  0.13260000  1.0
  C  C168  1  0.10321000  0.02593000  0.19060000  1.0
  C  C169  1  0.15789000  0.01597000  0.17210000  1.0
  C  C170  1  0.16543000  0.98041000  0.02730000  1.0
  C  C171  1  0.11600000  0.96785000  0.95280000  1.0
  C  C172  1  0.10621000  0.93330000  0.79680000  1.0
  C  C173  1  0.05813000  0.92460000  0.71400000  1.0
  C  C174  1  0.04860000  0.88275000  0.56720000  1.0
  C  C175  1  0.99780000  0.88484000  0.53320000  1.0
  C  C176  1  0.97490000  0.92737000  0.65730000  1.0
  C  C177  1  0.07842000  0.06076000  0.32340000  1.0
  C  C178  1  0.15116000  0.90372000  0.70880000  1.0
  C  C179  1  0.18128000  0.85860000  0.79060000  1.0
  C  C180  1  0.23200000  0.84550000  0.54670000  1.0
  C  C181  1  0.20415000  0.88950000  0.45390000  1.0
  C  C182  1  0.16325000  0.91920000  0.53620000  1.0
  C  C183  1  0.11237000  0.09380000  0.45180000  1.0
  C  C184  1  0.14711000  0.13822000  0.38990000  1.0
  C  C185  1  0.17552000  0.16216000  0.66650000  1.0
  C  C186  1  0.14145000  0.12000000  0.74000000  1.0
  C  C187  1  0.10942000  0.08529000  0.63260000  1.0
  C  C188  1  0.39679000  0.52593000  0.69060000  1.0
  C  C189  1  0.34211000  0.51597000  0.67210000  1.0
  C  C190  1  0.33457000  0.48041000  0.52730000  1.0
  C  C191  1  0.38400000  0.46785000  0.45280000  1.0
  C  C192  1  0.39379000  0.43330000  0.29680000  1.0
  C  C193  1  0.44187000  0.42460000  0.21400000  1.0
  C  C194  1  0.45140000  0.38275000  0.06720000  1.0
  C  C195  1  0.50220000  0.38484000  0.03320000  1.0
  C  C196  1  0.52510000  0.42737000  0.15730000  1.0
  C  C197  1  0.42158000  0.56076000  0.82340000  1.0
  C  C198  1  0.34884000  0.40372000  0.20880000  1.0
  C  C199  1  0.31872000  0.35860000  0.29060000  1.0
  C  C200  1  0.26800000  0.34550000  0.04670000  1.0
  C  C201  1  0.29585000  0.38950000  0.95390000  1.0
  C  C202  1  0.33675000  0.41920000  0.03620000  1.0
  C  C203  1  0.38763000  0.59380000  0.95180000  1.0
  C  C204  1  0.35289000  0.63822000  0.88990000  1.0
  C  C205  1  0.32448000  0.66216000  0.16650000  1.0
  C  C206  1  0.35855000  0.62000000  0.24000000  1.0
  C  C207  1  0.39058000  0.58529000  0.13260000  1.0
  C  C208  1  0.10321000  0.47407000  0.19060000  1.0
  C  C209  1  0.15789000  0.48403000  0.17210000  1.0
  C  C210  1  0.16543000  0.51959000  0.02730000  1.0
  C  C211  1  0.11600000  0.53215000  0.95280000  1.0
  C  C212  1  0.10621000  0.56670000  0.79680000  1.0
  C  C213  1  0.05813000  0.57540000  0.71400000  1.0
  C  C214  1  0.04860000  0.61725000  0.56720000  1.0
  C  C215  1  0.99780000  0.61516000  0.53320000  1.0
  C  C216  1  0.97490000  0.57263000  0.65730000  1.0
  C  C217  1  0.07842000  0.43924000  0.32340000  1.0
  C  C218  1  0.15116000  0.59628000  0.70880000  1.0
  C  C219  1  0.18128000  0.64140000  0.79060000  1.0
  C  C220  1  0.23200000  0.65450000  0.54670000  1.0
  C  C221  1  0.20415000  0.61050000  0.45390000  1.0
  C  C222  1  0.16325000  0.58080000  0.53620000  1.0
  C  C223  1  0.11237000  0.40620000  0.45180000  1.0
  C  C224  1  0.14711000  0.36178000  0.38990000  1.0
  C  C225  1  0.17552000  0.33784000  0.66650000  1.0
  C  C226  1  0.14145000  0.38000000  0.74000000  1.0
  C  C227  1  0.10942000  0.41471000  0.63260000  1.0
  C  C228  1  0.60321000  0.02593000  0.30940000  1.0
  C  C229  1  0.65789000  0.01597000  0.32790000  1.0
  C  C230  1  0.66543000  0.98041000  0.47270000  1.0
  C  C231  1  0.61600000  0.96785000  0.54720000  1.0
  C  C232  1  0.60621000  0.93330000  0.70320000  1.0
  C  C233  1  0.55813000  0.92460000  0.78600000  1.0
  C  C234  1  0.54860000  0.88275000  0.93280000  1.0
  C  C235  1  0.49780000  0.88484000  0.96680000  1.0
  C  C236  1  0.47490000  0.92737000  0.84270000  1.0
  C  C237  1  0.57842000  0.06076000  0.17660000  1.0
  C  C238  1  0.65116000  0.90372000  0.79120000  1.0
  C  C239  1  0.68128000  0.85860000  0.70940000  1.0
  C  C240  1  0.73200000  0.84550000  0.95330000  1.0
  C  C241  1  0.70415000  0.88950000  0.04610000  1.0
  C  C242  1  0.66325000  0.91920000  0.96380000  1.0
  C  C243  1  0.61237000  0.09380000  0.04820000  1.0
  C  C244  1  0.64711000  0.13822000  0.11010000  1.0
  C  C245  1  0.67552000  0.16216000  0.83350000  1.0
  C  C246  1  0.64145000  0.12000000  0.76000000  1.0
  C  C247  1  0.60942000  0.08529000  0.86740000  1.0
  C  C248  1  0.89679000  0.97407000  0.80940000  1.0
  C  C249  1  0.84211000  0.98403000  0.82790000  1.0
  C  C250  1  0.83457000  0.01959000  0.97270000  1.0
  C  C251  1  0.88400000  0.03215000  0.04720000  1.0
  C  C252  1  0.89379000  0.06670000  0.20320000  1.0
  C  C253  1  0.94187000  0.07540000  0.28600000  1.0
  C  C254  1  0.95140000  0.11725000  0.43280000  1.0
  C  C255  1  0.00220000  0.11516000  0.46680000  1.0
  C  C256  1  0.02510000  0.07263000  0.34270000  1.0
  C  C257  1  0.92158000  0.93924000  0.67660000  1.0
  C  C258  1  0.84884000  0.09628000  0.29120000  1.0
  C  C259  1  0.81872000  0.14140000  0.20940000  1.0
  C  C260  1  0.76800000  0.15450000  0.45330000  1.0
  C  C261  1  0.79585000  0.11050000  0.54610000  1.0
  C  C262  1  0.83675000  0.08080000  0.46380000  1.0
  C  C263  1  0.88763000  0.90620000  0.54820000  1.0
  C  C264  1  0.85289000  0.86178000  0.61010000  1.0
  C  C265  1  0.82448000  0.83784000  0.33350000  1.0
  C  C266  1  0.85855000  0.88000000  0.26000000  1.0
  C  C267  1  0.89058000  0.91471000  0.36740000  1.0
  N  N268  1  0.57915000  0.50422000  0.44640000  1.0
  N  N269  1  0.51265000  0.54848000  0.73740000  1.0
  N  N270  1  0.72105000  0.67039000  0.78610000  1.0
  N  N271  1  0.67857000  0.32836000  0.00690000  1.0
  N  N272  1  0.92085000  0.49578000  0.94640000  1.0
  N  N273  1  0.98735000  0.45152000  0.23740000  1.0
  N  N274  1  0.77895000  0.32961000  0.28610000  1.0
  N  N275  1  0.82143000  0.67164000  0.50690000  1.0
  N  N276  1  0.42085000  0.00422000  0.55360000  1.0
  N  N277  1  0.48735000  0.04848000  0.26260000  1.0
  N  N278  1  0.27895000  0.17039000  0.21390000  1.0
  N  N279  1  0.32143000  0.82836000  0.99310000  1.0
  N  N280  1  0.07915000  0.99578000  0.05360000  1.0
  N  N281  1  0.01265000  0.95152000  0.76260000  1.0
  N  N282  1  0.22105000  0.82961000  0.71390000  1.0
  N  N283  1  0.17857000  0.17164000  0.49310000  1.0
  N  N284  1  0.42085000  0.49578000  0.55360000  1.0
  N  N285  1  0.48735000  0.45152000  0.26260000  1.0
  N  N286  1  0.27895000  0.32961000  0.21390000  1.0
  N  N287  1  0.32143000  0.67164000  0.99310000  1.0
  N  N288  1  0.07915000  0.50422000  0.05360000  1.0
  N  N289  1  0.01265000  0.54848000  0.76260000  1.0
  N  N290  1  0.22105000  0.67039000  0.71390000  1.0
  N  N291  1  0.17857000  0.32836000  0.49310000  1.0
  N  N292  1  0.57915000  0.99578000  0.44640000  1.0
  N  N293  1  0.51265000  0.95152000  0.73740000  1.0
  N  N294  1  0.72105000  0.82961000  0.78610000  1.0
  N  N295  1  0.67857000  0.17164000  0.00690000  1.0
  N  N296  1  0.92085000  0.00422000  0.94640000  1.0
  N  N297  1  0.98735000  0.04848000  0.23740000  1.0
  N  N298  1  0.77895000  0.17039000  0.28610000  1.0
  N  N299  1  0.82143000  0.82836000  0.50690000  1.0
  Cl  Cl300  1  0.83424000  0.75000000  0.90877000  1.0
  Cl  Cl301  1  0.70903000  0.75000000  0.37341000  1.0
  Cl  Cl302  1  0.66576000  0.25000000  0.40877000  1.0
  Cl  Cl303  1  0.79097000  0.25000000  0.87341000  1.0
  Cl  Cl304  1  0.16576000  0.25000000  0.09123000  1.0
  Cl  Cl305  1  0.29097000  0.25000000  0.62659000  1.0
  Cl  Cl306  1  0.33424000  0.75000000  0.59123000  1.0
  Cl  Cl307  1  0.20903000  0.75000000  0.12659000  1.0
