# generated using pymatgen
data_V6Ni2Mo12PH48C40(N8O17)2
_symmetry_space_group_name_H-M   'P 1'
_cell_length_a   13.61200000
_cell_length_b   13.61200000
_cell_length_c   29.95600000
_cell_angle_alpha   90.00000000
_cell_angle_beta   90.00000000
_cell_angle_gamma   90.00000000
_symmetry_Int_Tables_number   1
_chemical_formula_structural   V6Ni2Mo12PH48C40(N8O17)2
_chemical_formula_sum   'V12 Ni4 Mo24 P2 H96 C80 N32 O68'
_cell_volume   5550.44371206
_cell_formula_units_Z   2
loop_
 _symmetry_equiv_pos_site_id
 _symmetry_equiv_pos_as_xyz
  1  'x, y, z'
loop_
 _atom_site_type_symbol
 _atom_site_label
 _atom_site_symmetry_multiplicity
 _atom_site_fract_x
 _atom_site_fract_y
 _atom_site_fract_z
 _atom_site_occupancy
  V  V0  1  0.00000000  0.00000000  0.37039000  1.0
  V  V1  1  0.50000000  0.50000000  0.12961000  1.0
  V  V2  1  0.00000000  0.00000000  0.62961000  1.0
  V  V3  1  0.50000000  0.50000000  0.87039000  1.0
  V  V4  1  0.24720000  0.16210000  0.50000000  1.0
  V  V5  1  0.75280000  0.83790000  0.50000000  1.0
  V  V6  1  0.83790000  0.24720000  0.50000000  1.0
  V  V7  1  0.16210000  0.75280000  0.50000000  1.0
  V  V8  1  0.25280000  0.66210000  0.00000000  1.0
  V  V9  1  0.74720000  0.33790000  0.00000000  1.0
  V  V10  1  0.66210000  0.74720000  0.00000000  1.0
  V  V11  1  0.33790000  0.25280000  0.00000000  1.0
  Ni  Ni12  1  0.00000000  0.00000000  0.24727000  1.0
  Ni  Ni13  1  0.50000000  0.50000000  0.25273000  1.0
  Ni  Ni14  1  0.00000000  0.00000000  0.75273000  1.0
  Ni  Ni15  1  0.50000000  0.50000000  0.74727000  1.0
  Mo  Mo16  1  0.16274000  0.10898000  0.41934000  1.0
  Mo  Mo17  1  0.83726000  0.89102000  0.41934000  1.0
  Mo  Mo18  1  0.89102000  0.16274000  0.41934000  1.0
  Mo  Mo19  1  0.10898000  0.83726000  0.41934000  1.0
  Mo  Mo20  1  0.33726000  0.60898000  0.08066000  1.0
  Mo  Mo21  1  0.66274000  0.39102000  0.08066000  1.0
  Mo  Mo22  1  0.60898000  0.66274000  0.08066000  1.0
  Mo  Mo23  1  0.39102000  0.33726000  0.08066000  1.0
  Mo  Mo24  1  0.83726000  0.89102000  0.58066000  1.0
  Mo  Mo25  1  0.16274000  0.10898000  0.58066000  1.0
  Mo  Mo26  1  0.10898000  0.83726000  0.58066000  1.0
  Mo  Mo27  1  0.89102000  0.16274000  0.58066000  1.0
  Mo  Mo28  1  0.66274000  0.39102000  0.91934000  1.0
  Mo  Mo29  1  0.33726000  0.60898000  0.91934000  1.0
  Mo  Mo30  1  0.39102000  0.33726000  0.91934000  1.0
  Mo  Mo31  1  0.60898000  0.66274000  0.91934000  1.0
  Mo  Mo32  1  0.26028000  0.94800000  0.50000000  1.0
  Mo  Mo33  1  0.73972000  0.05200000  0.50000000  1.0
  Mo  Mo34  1  0.05200000  0.26028000  0.50000000  1.0
  Mo  Mo35  1  0.94800000  0.73972000  0.50000000  1.0
  Mo  Mo36  1  0.23972000  0.44800000  0.00000000  1.0
  Mo  Mo37  1  0.76028000  0.55200000  0.00000000  1.0
  Mo  Mo38  1  0.44800000  0.76028000  0.00000000  1.0
  Mo  Mo39  1  0.55200000  0.23972000  0.00000000  1.0
  P  P40  1  0.00000000  0.00000000  0.50000000  1.0
  P  P41  1  0.50000000  0.50000000  0.00000000  1.0
  H  H42  1  0.99990000  0.33650000  0.34320000  1.0
  H  H43  1  0.03650000  0.42150000  0.31210000  1.0
  H  H44  1  0.11130000  0.36600000  0.34280000  1.0
  H  H45  1  0.16550000  0.08800000  0.18910000  1.0
  H  H46  1  0.25770000  0.14680000  0.20540000  1.0
  H  H47  1  0.18520000  0.19420000  0.17090000  1.0
  H  H48  1  0.00010000  0.66350000  0.34320000  1.0
  H  H49  1  0.96350000  0.57850000  0.31210000  1.0
  H  H50  1  0.88870000  0.63400000  0.34280000  1.0
  H  H51  1  0.83450000  0.91200000  0.18910000  1.0
  H  H52  1  0.74230000  0.85320000  0.20540000  1.0
  H  H53  1  0.81480000  0.80580000  0.17090000  1.0
  H  H54  1  0.66350000  0.99990000  0.34320000  1.0
  H  H55  1  0.57850000  0.03650000  0.31210000  1.0
  H  H56  1  0.63400000  0.11130000  0.34280000  1.0
  H  H57  1  0.91200000  0.16550000  0.18910000  1.0
  H  H58  1  0.85320000  0.25770000  0.20540000  1.0
  H  H59  1  0.80580000  0.18520000  0.17090000  1.0
  H  H60  1  0.33650000  0.00010000  0.34320000  1.0
  H  H61  1  0.42150000  0.96350000  0.31210000  1.0
  H  H62  1  0.36600000  0.88870000  0.34280000  1.0
  H  H63  1  0.08800000  0.83450000  0.18910000  1.0
  H  H64  1  0.14680000  0.74230000  0.20540000  1.0
  H  H65  1  0.19420000  0.81480000  0.17090000  1.0
  H  H66  1  0.50010000  0.83650000  0.15680000  1.0
  H  H67  1  0.46350000  0.92150000  0.18790000  1.0
  H  H68  1  0.38870000  0.86600000  0.15720000  1.0
  H  H69  1  0.33450000  0.58800000  0.31090000  1.0
  H  H70  1  0.24230000  0.64680000  0.29460000  1.0
  H  H71  1  0.31480000  0.69420000  0.32910000  1.0
  H  H72  1  0.49990000  0.16350000  0.15680000  1.0
  H  H73  1  0.53650000  0.07850000  0.18790000  1.0
  H  H74  1  0.61130000  0.13400000  0.15720000  1.0
  H  H75  1  0.66550000  0.41200000  0.31090000  1.0
  H  H76  1  0.75770000  0.35320000  0.29460000  1.0
  H  H77  1  0.68520000  0.30580000  0.32910000  1.0
  H  H78  1  0.83650000  0.49990000  0.15680000  1.0
  H  H79  1  0.92150000  0.53650000  0.18790000  1.0
  H  H80  1  0.86600000  0.61130000  0.15720000  1.0
  H  H81  1  0.58800000  0.66550000  0.31090000  1.0
  H  H82  1  0.64680000  0.75770000  0.29460000  1.0
  H  H83  1  0.69420000  0.68520000  0.32910000  1.0
  H  H84  1  0.16350000  0.50010000  0.15680000  1.0
  H  H85  1  0.07850000  0.46350000  0.18790000  1.0
  H  H86  1  0.13400000  0.38870000  0.15720000  1.0
  H  H87  1  0.41200000  0.33450000  0.31090000  1.0
  H  H88  1  0.35320000  0.24230000  0.29460000  1.0
  H  H89  1  0.30580000  0.31480000  0.32910000  1.0
  H  H90  1  0.00010000  0.66350000  0.65680000  1.0
  H  H91  1  0.96350000  0.57850000  0.68790000  1.0
  H  H92  1  0.88870000  0.63400000  0.65720000  1.0
  H  H93  1  0.83450000  0.91200000  0.81090000  1.0
  H  H94  1  0.74230000  0.85320000  0.79460000  1.0
  H  H95  1  0.81480000  0.80580000  0.82910000  1.0
  H  H96  1  0.99990000  0.33650000  0.65680000  1.0
  H  H97  1  0.03650000  0.42150000  0.68790000  1.0
  H  H98  1  0.11130000  0.36600000  0.65720000  1.0
  H  H99  1  0.16550000  0.08800000  0.81090000  1.0
  H  H100  1  0.25770000  0.14680000  0.79460000  1.0
  H  H101  1  0.18520000  0.19420000  0.82910000  1.0
  H  H102  1  0.33650000  0.00010000  0.65680000  1.0
  H  H103  1  0.42150000  0.96350000  0.68790000  1.0
  H  H104  1  0.36600000  0.88870000  0.65720000  1.0
  H  H105  1  0.08800000  0.83450000  0.81090000  1.0
  H  H106  1  0.14680000  0.74230000  0.79460000  1.0
  H  H107  1  0.19420000  0.81480000  0.82910000  1.0
  H  H108  1  0.66350000  0.99990000  0.65680000  1.0
  H  H109  1  0.57850000  0.03650000  0.68790000  1.0
  H  H110  1  0.63400000  0.11130000  0.65720000  1.0
  H  H111  1  0.91200000  0.16550000  0.81090000  1.0
  H  H112  1  0.85320000  0.25770000  0.79460000  1.0
  H  H113  1  0.80580000  0.18520000  0.82910000  1.0
  H  H114  1  0.49990000  0.16350000  0.84320000  1.0
  H  H115  1  0.53650000  0.07850000  0.81210000  1.0
  H  H116  1  0.61130000  0.13400000  0.84280000  1.0
  H  H117  1  0.66550000  0.41200000  0.68910000  1.0
  H  H118  1  0.75770000  0.35320000  0.70540000  1.0
  H  H119  1  0.68520000  0.30580000  0.67090000  1.0
  H  H120  1  0.50010000  0.83650000  0.84320000  1.0
  H  H121  1  0.46350000  0.92150000  0.81210000  1.0
  H  H122  1  0.38870000  0.86600000  0.84280000  1.0
  H  H123  1  0.33450000  0.58800000  0.68910000  1.0
  H  H124  1  0.24230000  0.64680000  0.70540000  1.0
  H  H125  1  0.31480000  0.69420000  0.67090000  1.0
  H  H126  1  0.16350000  0.50010000  0.84320000  1.0
  H  H127  1  0.07850000  0.46350000  0.81210000  1.0
  H  H128  1  0.13400000  0.38870000  0.84280000  1.0
  H  H129  1  0.41200000  0.33450000  0.68910000  1.0
  H  H130  1  0.35320000  0.24230000  0.70540000  1.0
  H  H131  1  0.30580000  0.31480000  0.67090000  1.0
  H  H132  1  0.83650000  0.49990000  0.84320000  1.0
  H  H133  1  0.92150000  0.53650000  0.81210000  1.0
  H  H134  1  0.86600000  0.61130000  0.84280000  1.0
  H  H135  1  0.58800000  0.66550000  0.68910000  1.0
  H  H136  1  0.64680000  0.75770000  0.70540000  1.0
  H  H137  1  0.69420000  0.68520000  0.67090000  1.0
  C  C138  1  0.13100000  0.19420000  0.23420000  1.0
  C  C139  1  0.14180000  0.28370000  0.25540000  1.0
  C  C140  1  0.07210000  0.28590000  0.28820000  1.0
  C  C141  1  0.05320000  0.35910000  0.32490000  1.0
  C  C142  1  0.19020000  0.15200000  0.19650000  1.0
  C  C143  1  0.86900000  0.80580000  0.23420000  1.0
  C  C144  1  0.85820000  0.71630000  0.25540000  1.0
  C  C145  1  0.92790000  0.71410000  0.28820000  1.0
  C  C146  1  0.94680000  0.64090000  0.32490000  1.0
  C  C147  1  0.80980000  0.84800000  0.19650000  1.0
  C  C148  1  0.80580000  0.13100000  0.23420000  1.0
  C  C149  1  0.71630000  0.14180000  0.25540000  1.0
  C  C150  1  0.71410000  0.07210000  0.28820000  1.0
  C  C151  1  0.64090000  0.05320000  0.32490000  1.0
  C  C152  1  0.84800000  0.19020000  0.19650000  1.0
  C  C153  1  0.19420000  0.86900000  0.23420000  1.0
  C  C154  1  0.28370000  0.85820000  0.25540000  1.0
  C  C155  1  0.28590000  0.92790000  0.28820000  1.0
  C  C156  1  0.35910000  0.94680000  0.32490000  1.0
  C  C157  1  0.15200000  0.80980000  0.19650000  1.0
  C  C158  1  0.36900000  0.69420000  0.26580000  1.0
  C  C159  1  0.35820000  0.78370000  0.24460000  1.0
  C  C160  1  0.42790000  0.78590000  0.21180000  1.0
  C  C161  1  0.44680000  0.85910000  0.17510000  1.0
  C  C162  1  0.30980000  0.65200000  0.30350000  1.0
  C  C163  1  0.63100000  0.30580000  0.26580000  1.0
  C  C164  1  0.64180000  0.21630000  0.24460000  1.0
  C  C165  1  0.57210000  0.21410000  0.21180000  1.0
  C  C166  1  0.55320000  0.14090000  0.17510000  1.0
  C  C167  1  0.69020000  0.34800000  0.30350000  1.0
  C  C168  1  0.69420000  0.63100000  0.26580000  1.0
  C  C169  1  0.78370000  0.64180000  0.24460000  1.0
  C  C170  1  0.78590000  0.57210000  0.21180000  1.0
  C  C171  1  0.85910000  0.55320000  0.17510000  1.0
  C  C172  1  0.65200000  0.69020000  0.30350000  1.0
  C  C173  1  0.30580000  0.36900000  0.26580000  1.0
  C  C174  1  0.21630000  0.35820000  0.24460000  1.0
  C  C175  1  0.21410000  0.42790000  0.21180000  1.0
  C  C176  1  0.14090000  0.44680000  0.17510000  1.0
  C  C177  1  0.34800000  0.30980000  0.30350000  1.0
  C  C178  1  0.86900000  0.80580000  0.76580000  1.0
  C  C179  1  0.85820000  0.71630000  0.74460000  1.0
  C  C180  1  0.92790000  0.71410000  0.71180000  1.0
  C  C181  1  0.94680000  0.64090000  0.67510000  1.0
  C  C182  1  0.80980000  0.84800000  0.80350000  1.0
  C  C183  1  0.13100000  0.19420000  0.76580000  1.0
  C  C184  1  0.14180000  0.28370000  0.74460000  1.0
  C  C185  1  0.07210000  0.28590000  0.71180000  1.0
  C  C186  1  0.05320000  0.35910000  0.67510000  1.0
  C  C187  1  0.19020000  0.15200000  0.80350000  1.0
  C  C188  1  0.19420000  0.86900000  0.76580000  1.0
  C  C189  1  0.28370000  0.85820000  0.74460000  1.0
  C  C190  1  0.28590000  0.92790000  0.71180000  1.0
  C  C191  1  0.35910000  0.94680000  0.67510000  1.0
  C  C192  1  0.15200000  0.80980000  0.80350000  1.0
  C  C193  1  0.80580000  0.13100000  0.76580000  1.0
  C  C194  1  0.71630000  0.14180000  0.74460000  1.0
  C  C195  1  0.71410000  0.07210000  0.71180000  1.0
  C  C196  1  0.64090000  0.05320000  0.67510000  1.0
  C  C197  1  0.84800000  0.19020000  0.80350000  1.0
  C  C198  1  0.63100000  0.30580000  0.73420000  1.0
  C  C199  1  0.64180000  0.21630000  0.75540000  1.0
  C  C200  1  0.57210000  0.21410000  0.78820000  1.0
  C  C201  1  0.55320000  0.14090000  0.82490000  1.0
  C  C202  1  0.69020000  0.34800000  0.69650000  1.0
  C  C203  1  0.36900000  0.69420000  0.73420000  1.0
  C  C204  1  0.35820000  0.78370000  0.75540000  1.0
  C  C205  1  0.42790000  0.78590000  0.78820000  1.0
  C  C206  1  0.44680000  0.85910000  0.82490000  1.0
  C  C207  1  0.30980000  0.65200000  0.69650000  1.0
  C  C208  1  0.30580000  0.36900000  0.73420000  1.0
  C  C209  1  0.21630000  0.35820000  0.75540000  1.0
  C  C210  1  0.21410000  0.42790000  0.78820000  1.0
  C  C211  1  0.14090000  0.44680000  0.82490000  1.0
  C  C212  1  0.34800000  0.30980000  0.69650000  1.0
  C  C213  1  0.69420000  0.63100000  0.73420000  1.0
  C  C214  1  0.78370000  0.64180000  0.75540000  1.0
  C  C215  1  0.78590000  0.57210000  0.78820000  1.0
  C  C216  1  0.85910000  0.55320000  0.82490000  1.0
  C  C217  1  0.65200000  0.69020000  0.69650000  1.0
  N  N218  1  0.05670000  0.14170000  0.25320000  1.0
  N  N219  1  0.02170000  0.19990000  0.28630000  1.0
  N  N220  1  0.94330000  0.85830000  0.25320000  1.0
  N  N221  1  0.97830000  0.80010000  0.28630000  1.0
  N  N222  1  0.85830000  0.05670000  0.25320000  1.0
  N  N223  1  0.80010000  0.02170000  0.28630000  1.0
  N  N224  1  0.14170000  0.94330000  0.25320000  1.0
  N  N225  1  0.19990000  0.97830000  0.28630000  1.0
  N  N226  1  0.44330000  0.64170000  0.24680000  1.0
  N  N227  1  0.47830000  0.69990000  0.21370000  1.0
  N  N228  1  0.55670000  0.35830000  0.24680000  1.0
  N  N229  1  0.52170000  0.30010000  0.21370000  1.0
  N  N230  1  0.64170000  0.55670000  0.24680000  1.0
  N  N231  1  0.69990000  0.52170000  0.21370000  1.0
  N  N232  1  0.35830000  0.44330000  0.24680000  1.0
  N  N233  1  0.30010000  0.47830000  0.21370000  1.0
  N  N234  1  0.94330000  0.85830000  0.74680000  1.0
  N  N235  1  0.97830000  0.80010000  0.71370000  1.0
  N  N236  1  0.05670000  0.14170000  0.74680000  1.0
  N  N237  1  0.02170000  0.19990000  0.71370000  1.0
  N  N238  1  0.14170000  0.94330000  0.74680000  1.0
  N  N239  1  0.19990000  0.97830000  0.71370000  1.0
  N  N240  1  0.85830000  0.05670000  0.74680000  1.0
  N  N241  1  0.80010000  0.02170000  0.71370000  1.0
  N  N242  1  0.55670000  0.35830000  0.75320000  1.0
  N  N243  1  0.52170000  0.30010000  0.78630000  1.0
  N  N244  1  0.44330000  0.64170000  0.75320000  1.0
  N  N245  1  0.47830000  0.69990000  0.78630000  1.0
  N  N246  1  0.35830000  0.44330000  0.75320000  1.0
  N  N247  1  0.30010000  0.47830000  0.78630000  1.0
  N  N248  1  0.64170000  0.55670000  0.75320000  1.0
  N  N249  1  0.69990000  0.52170000  0.78630000  1.0
  O  O250  1  0.08960000  0.98660000  0.47000000  1.0
  O  O251  1  0.25140000  0.04890000  0.45550000  1.0
  O  O252  1  0.14120000  0.21170000  0.45560000  1.0
  O  O253  1  0.02460000  0.12860000  0.39400000  1.0
  O  O254  1  0.91040000  0.01340000  0.47000000  1.0
  O  O255  1  0.74860000  0.95110000  0.45550000  1.0
  O  O256  1  0.85880000  0.78830000  0.45560000  1.0
  O  O257  1  0.97540000  0.87140000  0.39400000  1.0
  O  O258  1  0.01340000  0.08960000  0.47000000  1.0
  O  O259  1  0.95110000  0.25140000  0.45550000  1.0
  O  O260  1  0.78830000  0.14120000  0.45560000  1.0
  O  O261  1  0.87140000  0.02460000  0.39400000  1.0
  O  O262  1  0.98660000  0.91040000  0.47000000  1.0
  O  O263  1  0.04890000  0.74860000  0.45550000  1.0
  O  O264  1  0.21170000  0.85880000  0.45560000  1.0
  O  O265  1  0.12860000  0.97540000  0.39400000  1.0
  O  O266  1  0.41040000  0.48660000  0.03000000  1.0
  O  O267  1  0.24860000  0.54890000  0.04450000  1.0
  O  O268  1  0.35880000  0.71170000  0.04440000  1.0
  O  O269  1  0.47540000  0.62860000  0.10600000  1.0
  O  O270  1  0.58960000  0.51340000  0.03000000  1.0
  O  O271  1  0.75140000  0.45110000  0.04450000  1.0
  O  O272  1  0.64120000  0.28830000  0.04440000  1.0
  O  O273  1  0.52460000  0.37140000  0.10600000  1.0
  O  O274  1  0.48660000  0.58960000  0.03000000  1.0
  O  O275  1  0.54890000  0.75140000  0.04450000  1.0
  O  O276  1  0.71170000  0.64120000  0.04440000  1.0
  O  O277  1  0.62860000  0.52460000  0.10600000  1.0
  O  O278  1  0.51340000  0.41040000  0.03000000  1.0
  O  O279  1  0.45110000  0.24860000  0.04450000  1.0
  O  O280  1  0.28830000  0.35880000  0.04440000  1.0
  O  O281  1  0.37140000  0.47540000  0.10600000  1.0
  O  O282  1  0.91040000  0.01340000  0.53000000  1.0
  O  O283  1  0.74860000  0.95110000  0.54450000  1.0
  O  O284  1  0.85880000  0.78830000  0.54440000  1.0
  O  O285  1  0.97540000  0.87140000  0.60600000  1.0
  O  O286  1  0.08960000  0.98660000  0.53000000  1.0
  O  O287  1  0.25140000  0.04890000  0.54450000  1.0
  O  O288  1  0.14120000  0.21170000  0.54440000  1.0
  O  O289  1  0.02460000  0.12860000  0.60600000  1.0
  O  O290  1  0.98660000  0.91040000  0.53000000  1.0
  O  O291  1  0.04890000  0.74860000  0.54450000  1.0
  O  O292  1  0.21170000  0.85880000  0.54440000  1.0
  O  O293  1  0.12860000  0.97540000  0.60600000  1.0
  O  O294  1  0.01340000  0.08960000  0.53000000  1.0
  O  O295  1  0.95110000  0.25140000  0.54450000  1.0
  O  O296  1  0.78830000  0.14120000  0.54440000  1.0
  O  O297  1  0.87140000  0.02460000  0.60600000  1.0
  O  O298  1  0.58960000  0.51340000  0.97000000  1.0
  O  O299  1  0.75140000  0.45110000  0.95550000  1.0
  O  O300  1  0.64120000  0.28830000  0.95560000  1.0
  O  O301  1  0.52460000  0.37140000  0.89400000  1.0
  O  O302  1  0.41040000  0.48660000  0.97000000  1.0
  O  O303  1  0.24860000  0.54890000  0.95550000  1.0
  O  O304  1  0.35880000  0.71170000  0.95560000  1.0
  O  O305  1  0.47540000  0.62860000  0.89400000  1.0
  O  O306  1  0.51340000  0.41040000  0.97000000  1.0
  O  O307  1  0.45110000  0.24860000  0.95550000  1.0
  O  O308  1  0.28830000  0.35880000  0.95560000  1.0
  O  O309  1  0.37140000  0.47540000  0.89400000  1.0
  O  O310  1  0.48660000  0.58960000  0.97000000  1.0
  O  O311  1  0.54890000  0.75140000  0.95550000  1.0
  O  O312  1  0.71170000  0.64120000  0.95560000  1.0
  O  O313  1  0.62860000  0.52460000  0.89400000  1.0
  O  O314  1  0.00000000  0.00000000  0.31600000  1.0
  O  O315  1  0.50000000  0.50000000  0.18400000  1.0
  O  O316  1  0.00000000  0.00000000  0.68400000  1.0
  O  O317  1  0.50000000  0.50000000  0.81600000  1.0
