# generated using pymatgen
data_CeMo2H3C7NO8
_symmetry_space_group_name_H-M   'P 1'
_cell_length_a   11.50840000
_cell_length_b   12.71580000
_cell_length_c   14.53870000
_cell_angle_alpha   94.24100000
_cell_angle_beta   109.06600000
_cell_angle_gamma   115.60300000
_symmetry_Int_Tables_number   1
_chemical_formula_structural   CeMo2H3C7NO8
_chemical_formula_sum   'Ce4 Mo8 H12 C28 N4 O32'
_cell_volume   1754.71068760
_cell_formula_units_Z   4
loop_
 _symmetry_equiv_pos_site_id
 _symmetry_equiv_pos_as_xyz
  1  'x, y, z'
loop_
 _atom_site_type_symbol
 _atom_site_label
 _atom_site_symmetry_multiplicity
 _atom_site_fract_x
 _atom_site_fract_y
 _atom_site_fract_z
 _atom_site_occupancy
  Ce  Ce0  1  0.38220000  0.45220000  0.83177000  1.0
  Ce  Ce1  1  0.23327000  0.52404000  0.44113000  1.0
  Ce  Ce2  1  0.61780000  0.54780000  0.16823000  1.0
  Ce  Ce3  1  0.76673000  0.47596000  0.55887000  1.0
  Mo  Mo4  1  0.34935000  0.75832000  0.88641000  1.0
  Mo  Mo5  1  0.37236000  0.92513000  0.72719000  1.0
  Mo  Mo6  1  0.37730000  0.12519000  0.88323000  1.0
  Mo  Mo7  1  0.64688000  0.04335000  0.96194000  1.0
  Mo  Mo8  1  0.65065000  0.24168000  0.11359000  1.0
  Mo  Mo9  1  0.62764000  0.07487000  0.27281000  1.0
  Mo  Mo10  1  0.62270000  0.87481000  0.11677000  1.0
  Mo  Mo11  1  0.35312000  0.95665000  0.03806000  1.0
  H  H12  1  0.71160000  0.83170000  0.70330000  1.0
  H  H13  1  0.91400000  0.92930000  0.84990000  1.0
  H  H14  1  0.92440000  0.85000000  0.98840000  1.0
  H  H15  1  0.95390000  0.61690000  0.09740000  1.0
  H  H16  1  0.10940000  0.65030000  0.02130000  1.0
  H  H17  1  0.31260000  0.63330000  0.10010000  1.0
  H  H18  1  0.28840000  0.16830000  0.29670000  1.0
  H  H19  1  0.08600000  0.07070000  0.15010000  1.0
  H  H20  1  0.07560000  0.15000000  0.01160000  1.0
  H  H21  1  0.04610000  0.38310000  0.90260000  1.0
  H  H22  1  0.89060000  0.34970000  0.97870000  1.0
  H  H23  1  0.68740000  0.36670000  0.89990000  1.0
  C  C24  1  0.47080000  0.62480000  0.66810000  1.0
  C  C25  1  0.60710000  0.69880000  0.75990000  1.0
  C  C26  1  0.71780000  0.80190000  0.76020000  1.0
  C  C27  1  0.83730000  0.85930000  0.84700000  1.0
  C  C28  1  0.84310000  0.81260000  0.92960000  1.0
  C  C29  1  0.72750000  0.70990000  0.92490000  1.0
  C  C30  1  0.72020000  0.65460000  0.00950000  1.0
  C  C31  1  0.96530000  0.55090000  0.27360000  1.0
  C  C32  1  0.06180000  0.57680000  0.21850000  1.0
  C  C33  1  0.03380000  0.60940000  0.12710000  1.0
  C  C34  1  0.12680000  0.63000000  0.08260000  1.0
  C  C35  1  0.24850000  0.62050000  0.12940000  1.0
  C  C36  1  0.26830000  0.59140000  0.22110000  1.0
  C  C37  1  0.39870000  0.58440000  0.28100000  1.0
  C  C38  1  0.52920000  0.37520000  0.33190000  1.0
  C  C39  1  0.39290000  0.30120000  0.24010000  1.0
  C  C40  1  0.28220000  0.19810000  0.23980000  1.0
  C  C41  1  0.16270000  0.14070000  0.15300000  1.0
  C  C42  1  0.15690000  0.18740000  0.07040000  1.0
  C  C43  1  0.27250000  0.29010000  0.07510000  1.0
  C  C44  1  0.27980000  0.34540000  0.99050000  1.0
  C  C45  1  0.03470000  0.44910000  0.72640000  1.0
  C  C46  1  0.93820000  0.42320000  0.78150000  1.0
  C  C47  1  0.96620000  0.39060000  0.87290000  1.0
  C  C48  1  0.87320000  0.37000000  0.91740000  1.0
  C  C49  1  0.75150000  0.37950000  0.87060000  1.0
  C  C50  1  0.73170000  0.40860000  0.77890000  1.0
  C  C51  1  0.60130000  0.41560000  0.71900000  1.0
  N  N52  1  0.60870000  0.65160000  0.83990000  1.0
  N  N53  1  0.17630000  0.56980000  0.26400000  1.0
  N  N54  1  0.39130000  0.34840000  0.16010000  1.0
  N  N55  1  0.82370000  0.43020000  0.73600000  1.0
  O  O56  1  0.37100000  0.53920000  0.67790000  1.0
  O  O57  1  0.46550000  0.65140000  0.58640000  1.0
  O  O58  1  0.61600000  0.54790000  0.98860000  1.0
  O  O59  1  0.80880000  0.70730000  0.09670000  1.0
  O  O60  1  0.00490000  0.52300000  0.35540000  1.0
  O  O61  1  0.85720000  0.55930000  0.23870000  1.0
  O  O62  1  0.40860000  0.56160000  0.36490000  1.0
  O  O63  1  0.48680000  0.60320000  0.24440000  1.0
  O  O64  1  0.39610000  0.95240000  0.90270000  1.0
  O  O65  1  0.38930000  0.79210000  0.77230000  1.0
  O  O66  1  0.38190000  0.63970000  0.89800000  1.0
  O  O67  1  0.41500000  0.08770000  0.77120000  1.0
  O  O68  1  0.60580000  0.01590000  0.83290000  1.0
  O  O69  1  0.61370000  0.18070000  0.97320000  1.0
  O  O70  1  0.40710000  0.11980000  0.02530000  1.0
  O  O71  1  0.42140000  0.27370000  0.89050000  1.0
  O  O72  1  0.62900000  0.46080000  0.32210000  1.0
  O  O73  1  0.53450000  0.34860000  0.41360000  1.0
  O  O74  1  0.38400000  0.45210000  0.01140000  1.0
  O  O75  1  0.19120000  0.29270000  0.90330000  1.0
  O  O76  1  0.99510000  0.47700000  0.64460000  1.0
  O  O77  1  0.14280000  0.44070000  0.76130000  1.0
  O  O78  1  0.59140000  0.43840000  0.63510000  1.0
  O  O79  1  0.51320000  0.39680000  0.75560000  1.0
  O  O80  1  0.60390000  0.04760000  0.09730000  1.0
  O  O81  1  0.61070000  0.20790000  0.22770000  1.0
  O  O82  1  0.61810000  0.36030000  0.10200000  1.0
  O  O83  1  0.58500000  0.91230000  0.22880000  1.0
  O  O84  1  0.39420000  0.98410000  0.16710000  1.0
  O  O85  1  0.38630000  0.81930000  0.02680000  1.0
  O  O86  1  0.59290000  0.88020000  0.97470000  1.0
  O  O87  1  0.57860000  0.72630000  0.10950000  1.0
