# generated using pymatgen
data_ErH4(CO2)4
_symmetry_space_group_name_H-M   'P 1'
_cell_length_a   6.65520000
_cell_length_b   18.35490000
_cell_length_c   8.43460000
_cell_angle_alpha   90.00000000
_cell_angle_beta   90.00000000
_cell_angle_gamma   90.00000000
_symmetry_Int_Tables_number   1
_chemical_formula_structural   ErH4(CO2)4
_chemical_formula_sum   'Er4 H16 C16 O32'
_cell_volume   1030.33303739
_cell_formula_units_Z   4
loop_
 _symmetry_equiv_pos_site_id
 _symmetry_equiv_pos_as_xyz
  1  'x, y, z'
loop_
 _atom_site_type_symbol
 _atom_site_label
 _atom_site_symmetry_multiplicity
 _atom_site_fract_x
 _atom_site_fract_y
 _atom_site_fract_z
 _atom_site_occupancy
  Er  Er0  1  0.50000000  0.35729000  0.75000000  1.0
  Er  Er1  1  0.00000000  0.85729000  0.75000000  1.0
  Er  Er2  1  0.50000000  0.64271000  0.25000000  1.0
  Er  Er3  1  0.00000000  0.14271000  0.25000000  1.0
  H  H4  1  0.22000000  0.28250000  0.04550000  1.0
  H  H5  1  0.72000000  0.78250000  0.04550000  1.0
  H  H6  1  0.78000000  0.71750000  0.54550000  1.0
  H  H7  1  0.28000000  0.21750000  0.54550000  1.0
  H  H8  1  0.78000000  0.28250000  0.45450000  1.0
  H  H9  1  0.28000000  0.78250000  0.45450000  1.0
  H  H10  1  0.22000000  0.71750000  0.95450000  1.0
  H  H11  1  0.72000000  0.21750000  0.95450000  1.0
  H  H12  1  0.00000000  0.32360000  0.75000000  1.0
  H  H13  1  0.50000000  0.82360000  0.75000000  1.0
  H  H14  1  0.00000000  0.67640000  0.25000000  1.0
  H  H15  1  0.50000000  0.17640000  0.25000000  1.0
  H  H16  1  0.71380000  0.50000000  0.50000000  1.0
  H  H17  1  0.21380000  0.00000000  0.50000000  1.0
  H  H18  1  0.28620000  0.50000000  0.00000000  1.0
  H  H19  1  0.78620000  0.00000000  0.00000000  1.0
  C  C20  1  0.23710000  0.24390000  0.97530000  1.0
  C  C21  1  0.73710000  0.74390000  0.97530000  1.0
  C  C22  1  0.76290000  0.75610000  0.47530000  1.0
  C  C23  1  0.26290000  0.25610000  0.47530000  1.0
  C  C24  1  0.76290000  0.24390000  0.52470000  1.0
  C  C25  1  0.26290000  0.74390000  0.52470000  1.0
  C  C26  1  0.23710000  0.75610000  0.02470000  1.0
  C  C27  1  0.73710000  0.25610000  0.02470000  1.0
  C  C28  1  0.00000000  0.37430000  0.75000000  1.0
  C  C29  1  0.50000000  0.87430000  0.75000000  1.0
  C  C30  1  0.00000000  0.62570000  0.25000000  1.0
  C  C31  1  0.50000000  0.12570000  0.25000000  1.0
  C  C32  1  0.57410000  0.50000000  0.50000000  1.0
  C  C33  1  0.07410000  0.00000000  0.50000000  1.0
  C  C34  1  0.42590000  0.50000000  0.00000000  1.0
  C  C35  1  0.92590000  0.00000000  0.00000000  1.0
  O  O36  1  0.32070000  0.25808000  0.84710000  1.0
  O  O37  1  0.17430000  0.18375000  0.01890000  1.0
  O  O38  1  0.16560000  0.40540000  0.76870000  1.0
  O  O39  1  0.48890000  0.45012000  0.57030000  1.0
  O  O40  1  0.82070000  0.75808000  0.84710000  1.0
  O  O41  1  0.67430000  0.68375000  0.01890000  1.0
  O  O42  1  0.66560000  0.90540000  0.76870000  1.0
  O  O43  1  0.98890000  0.95012000  0.57030000  1.0
  O  O44  1  0.67930000  0.74192000  0.34710000  1.0
  O  O45  1  0.82570000  0.81625000  0.51890000  1.0
  O  O46  1  0.83440000  0.59460000  0.26870000  1.0
  O  O47  1  0.51110000  0.54988000  0.07030000  1.0
  O  O48  1  0.17930000  0.24192000  0.34710000  1.0
  O  O49  1  0.32570000  0.31625000  0.51890000  1.0
  O  O50  1  0.33440000  0.09460000  0.26870000  1.0
  O  O51  1  0.01110000  0.04988000  0.07030000  1.0
  O  O52  1  0.67930000  0.25808000  0.65290000  1.0
  O  O53  1  0.82570000  0.18375000  0.48110000  1.0
  O  O54  1  0.83440000  0.40540000  0.73130000  1.0
  O  O55  1  0.51110000  0.45012000  0.92970000  1.0
  O  O56  1  0.17930000  0.75808000  0.65290000  1.0
  O  O57  1  0.32570000  0.68375000  0.48110000  1.0
  O  O58  1  0.33440000  0.90540000  0.73130000  1.0
  O  O59  1  0.01110000  0.95012000  0.92970000  1.0
  O  O60  1  0.32070000  0.74192000  0.15290000  1.0
  O  O61  1  0.17430000  0.81625000  0.98110000  1.0
  O  O62  1  0.16560000  0.59460000  0.23130000  1.0
  O  O63  1  0.48890000  0.54988000  0.42970000  1.0
  O  O64  1  0.82070000  0.24192000  0.15290000  1.0
  O  O65  1  0.67430000  0.31625000  0.98110000  1.0
  O  O66  1  0.66560000  0.09460000  0.23130000  1.0
  O  O67  1  0.98890000  0.04988000  0.42970000  1.0
