# generated using pymatgen
data_ErH4(CO2)4
_symmetry_space_group_name_H-M   'P 1'
_cell_length_a   6.63180000
_cell_length_b   18.37190000
_cell_length_c   8.41260000
_cell_angle_alpha   90.00000000
_cell_angle_beta   90.00000000
_cell_angle_gamma   90.00000000
_symmetry_Int_Tables_number   1
_chemical_formula_structural   ErH4(CO2)4
_chemical_formula_sum   'Er4 H16 C16 O32'
_cell_volume   1024.98080638
_cell_formula_units_Z   4
loop_
 _symmetry_equiv_pos_site_id
 _symmetry_equiv_pos_as_xyz
  1  'x, y, z'
loop_
 _atom_site_type_symbol
 _atom_site_label
 _atom_site_symmetry_multiplicity
 _atom_site_fract_x
 _atom_site_fract_y
 _atom_site_fract_z
 _atom_site_occupancy
  Er  Er0  1  0.00000000  0.14293000  0.25000000  1.0
  Er  Er1  1  0.50000000  0.64293000  0.25000000  1.0
  Er  Er2  1  0.00000000  0.85707000  0.75000000  1.0
  Er  Er3  1  0.50000000  0.35707000  0.75000000  1.0
  H  H4  1  0.21320000  0.28300000  0.04590000  1.0
  H  H5  1  0.71320000  0.78300000  0.04590000  1.0
  H  H6  1  0.78680000  0.71700000  0.54590000  1.0
  H  H7  1  0.28680000  0.21700000  0.54590000  1.0
  H  H8  1  0.78680000  0.28300000  0.45410000  1.0
  H  H9  1  0.28680000  0.78300000  0.45410000  1.0
  H  H10  1  0.21320000  0.71700000  0.95410000  1.0
  H  H11  1  0.71320000  0.21700000  0.95410000  1.0
  H  H12  1  0.21880000  0.00000000  0.50000000  1.0
  H  H13  1  0.71880000  0.50000000  0.50000000  1.0
  H  H14  1  0.78120000  0.00000000  0.00000000  1.0
  H  H15  1  0.28120000  0.50000000  0.00000000  1.0
  H  H16  1  0.50000000  0.17830000  0.25000000  1.0
  H  H17  1  0.00000000  0.67830000  0.25000000  1.0
  H  H18  1  0.50000000  0.82170000  0.75000000  1.0
  H  H19  1  0.00000000  0.32170000  0.75000000  1.0
  C  C20  1  0.23440000  0.24360000  0.97470000  1.0
  C  C21  1  0.73440000  0.74360000  0.97470000  1.0
  C  C22  1  0.76560000  0.75640000  0.47470000  1.0
  C  C23  1  0.26560000  0.25640000  0.47470000  1.0
  C  C24  1  0.76560000  0.24360000  0.52530000  1.0
  C  C25  1  0.26560000  0.74360000  0.52530000  1.0
  C  C26  1  0.23440000  0.75640000  0.02530000  1.0
  C  C27  1  0.73440000  0.25640000  0.02530000  1.0
  C  C28  1  0.07560000  0.00000000  0.50000000  1.0
  C  C29  1  0.57560000  0.50000000  0.50000000  1.0
  C  C30  1  0.92440000  0.00000000  0.00000000  1.0
  C  C31  1  0.42440000  0.50000000  0.00000000  1.0
  C  C32  1  0.50000000  0.12660000  0.25000000  1.0
  C  C33  1  0.00000000  0.62660000  0.25000000  1.0
  C  C34  1  0.50000000  0.87340000  0.75000000  1.0
  C  C35  1  0.00000000  0.37340000  0.75000000  1.0
  O  O36  1  0.98560000  0.05010000  0.43010000  1.0
  O  O37  1  0.66540000  0.09510000  0.22710000  1.0
  O  O38  1  0.32020000  0.25710000  0.84530000  1.0
  O  O39  1  0.17530000  0.18260000  0.01660000  1.0
  O  O40  1  0.48560000  0.55010000  0.43010000  1.0
  O  O41  1  0.16540000  0.59510000  0.22710000  1.0
  O  O42  1  0.82020000  0.75710000  0.84530000  1.0
  O  O43  1  0.67530000  0.68260000  0.01660000  1.0
  O  O44  1  0.01440000  0.94990000  0.93010000  1.0
  O  O45  1  0.33460000  0.90490000  0.72710000  1.0
  O  O46  1  0.67980000  0.74290000  0.34530000  1.0
  O  O47  1  0.82470000  0.81740000  0.51660000  1.0
  O  O48  1  0.51440000  0.44990000  0.93010000  1.0
  O  O49  1  0.83460000  0.40490000  0.72710000  1.0
  O  O50  1  0.17980000  0.24290000  0.34530000  1.0
  O  O51  1  0.32470000  0.31740000  0.51660000  1.0
  O  O52  1  0.01440000  0.05010000  0.06990000  1.0
  O  O53  1  0.33460000  0.09510000  0.27290000  1.0
  O  O54  1  0.67980000  0.25710000  0.65470000  1.0
  O  O55  1  0.82470000  0.18260000  0.48340000  1.0
  O  O56  1  0.51440000  0.55010000  0.06990000  1.0
  O  O57  1  0.83460000  0.59510000  0.27290000  1.0
  O  O58  1  0.17980000  0.75710000  0.65470000  1.0
  O  O59  1  0.32470000  0.68260000  0.48340000  1.0
  O  O60  1  0.98560000  0.94990000  0.56990000  1.0
  O  O61  1  0.66540000  0.90490000  0.77290000  1.0
  O  O62  1  0.32020000  0.74290000  0.15470000  1.0
  O  O63  1  0.17530000  0.81740000  0.98340000  1.0
  O  O64  1  0.48560000  0.44990000  0.56990000  1.0
  O  O65  1  0.16540000  0.40490000  0.77290000  1.0
  O  O66  1  0.82020000  0.24290000  0.15470000  1.0
  O  O67  1  0.67530000  0.31740000  0.98340000  1.0
