# generated using pymatgen
data_ErH4(CO2)4
_symmetry_space_group_name_H-M   'P 1'
_cell_length_a   6.65140000
_cell_length_b   18.34700000
_cell_length_c   8.43110000
_cell_angle_alpha   90.00000000
_cell_angle_beta   90.00000000
_cell_angle_gamma   90.00000000
_symmetry_Int_Tables_number   1
_chemical_formula_structural   ErH4(CO2)4
_chemical_formula_sum   'Er4 H16 C16 O32'
_cell_volume   1028.87441435
_cell_formula_units_Z   4
loop_
 _symmetry_equiv_pos_site_id
 _symmetry_equiv_pos_as_xyz
  1  'x, y, z'
loop_
 _atom_site_type_symbol
 _atom_site_label
 _atom_site_symmetry_multiplicity
 _atom_site_fract_x
 _atom_site_fract_y
 _atom_site_fract_z
 _atom_site_occupancy
  Er  Er0  1  0.00000000  0.14272000  0.25000000  1.0
  Er  Er1  1  0.50000000  0.64272000  0.25000000  1.0
  Er  Er2  1  0.00000000  0.85728000  0.75000000  1.0
  Er  Er3  1  0.50000000  0.35728000  0.75000000  1.0
  H  H4  1  0.21970000  0.28260000  0.04510000  1.0
  H  H5  1  0.71970000  0.78260000  0.04510000  1.0
  H  H6  1  0.78030000  0.71740000  0.54510000  1.0
  H  H7  1  0.28030000  0.21740000  0.54510000  1.0
  H  H8  1  0.78030000  0.28260000  0.45490000  1.0
  H  H9  1  0.28030000  0.78260000  0.45490000  1.0
  H  H10  1  0.21970000  0.71740000  0.95490000  1.0
  H  H11  1  0.71970000  0.21740000  0.95490000  1.0
  H  H12  1  0.21570000  0.00000000  0.50000000  1.0
  H  H13  1  0.71570000  0.50000000  0.50000000  1.0
  H  H14  1  0.78430000  0.00000000  0.00000000  1.0
  H  H15  1  0.28430000  0.50000000  0.00000000  1.0
  H  H16  1  0.50000000  0.17700000  0.25000000  1.0
  H  H17  1  0.00000000  0.67700000  0.25000000  1.0
  H  H18  1  0.50000000  0.82300000  0.75000000  1.0
  H  H19  1  0.00000000  0.32300000  0.75000000  1.0
  C  C20  1  0.23700000  0.24400000  0.97490000  1.0
  C  C21  1  0.73700000  0.74400000  0.97490000  1.0
  C  C22  1  0.76300000  0.75600000  0.47490000  1.0
  C  C23  1  0.26300000  0.25600000  0.47490000  1.0
  C  C24  1  0.76300000  0.24400000  0.52510000  1.0
  C  C25  1  0.26300000  0.74400000  0.52510000  1.0
  C  C26  1  0.23700000  0.75600000  0.02510000  1.0
  C  C27  1  0.73700000  0.25600000  0.02510000  1.0
  C  C28  1  0.07590000  0.00000000  0.50000000  1.0
  C  C29  1  0.57590000  0.50000000  0.50000000  1.0
  C  C30  1  0.92410000  0.00000000  0.00000000  1.0
  C  C31  1  0.42410000  0.50000000  0.00000000  1.0
  C  C32  1  0.50000000  0.12630000  0.25000000  1.0
  C  C33  1  0.00000000  0.62630000  0.25000000  1.0
  C  C34  1  0.50000000  0.87370000  0.75000000  1.0
  C  C35  1  0.00000000  0.37370000  0.75000000  1.0
  O  O36  1  0.98730000  0.05010000  0.43040000  1.0
  O  O37  1  0.66470000  0.09510000  0.22860000  1.0
  O  O38  1  0.31940000  0.25790000  0.84720000  1.0
  O  O39  1  0.17510000  0.18360000  0.01820000  1.0
  O  O40  1  0.48730000  0.55010000  0.43040000  1.0
  O  O41  1  0.16470000  0.59510000  0.22860000  1.0
  O  O42  1  0.81940000  0.75790000  0.84720000  1.0
  O  O43  1  0.67510000  0.68360000  0.01820000  1.0
  O  O44  1  0.01270000  0.94990000  0.93040000  1.0
  O  O45  1  0.33530000  0.90490000  0.72860000  1.0
  O  O46  1  0.68060000  0.74210000  0.34720000  1.0
  O  O47  1  0.82490000  0.81640000  0.51820000  1.0
  O  O48  1  0.51270000  0.44990000  0.93040000  1.0
  O  O49  1  0.83530000  0.40490000  0.72860000  1.0
  O  O50  1  0.18060000  0.24210000  0.34720000  1.0
  O  O51  1  0.32490000  0.31640000  0.51820000  1.0
  O  O52  1  0.01270000  0.05010000  0.06960000  1.0
  O  O53  1  0.33530000  0.09510000  0.27140000  1.0
  O  O54  1  0.68060000  0.25790000  0.65280000  1.0
  O  O55  1  0.82490000  0.18360000  0.48180000  1.0
  O  O56  1  0.51270000  0.55010000  0.06960000  1.0
  O  O57  1  0.83530000  0.59510000  0.27140000  1.0
  O  O58  1  0.18060000  0.75790000  0.65280000  1.0
  O  O59  1  0.32490000  0.68360000  0.48180000  1.0
  O  O60  1  0.98730000  0.94990000  0.56960000  1.0
  O  O61  1  0.66470000  0.90490000  0.77140000  1.0
  O  O62  1  0.31940000  0.74210000  0.15280000  1.0
  O  O63  1  0.17510000  0.81640000  0.98180000  1.0
  O  O64  1  0.48730000  0.44990000  0.56960000  1.0
  O  O65  1  0.16470000  0.40490000  0.77140000  1.0
  O  O66  1  0.81940000  0.24210000  0.15280000  1.0
  O  O67  1  0.67510000  0.31640000  0.98180000  1.0
