# generated using pymatgen
data_Tb2H6C15(NO2)6
_symmetry_space_group_name_H-M   'P 1'
_cell_length_a   13.14100000
_cell_length_b   13.27900000
_cell_length_c   32.18100000
_cell_angle_alpha   90.00000000
_cell_angle_beta   90.00000000
_cell_angle_gamma   90.00000000
_symmetry_Int_Tables_number   1
_chemical_formula_structural   Tb2H6C15(NO2)6
_chemical_formula_sum   'Tb16 H48 C120 N48 O96'
_cell_volume   5615.56322836
_cell_formula_units_Z   8
loop_
 _symmetry_equiv_pos_site_id
 _symmetry_equiv_pos_as_xyz
  1  'x, y, z'
loop_
 _atom_site_type_symbol
 _atom_site_label
 _atom_site_symmetry_multiplicity
 _atom_site_fract_x
 _atom_site_fract_y
 _atom_site_fract_z
 _atom_site_occupancy
  Tb  Tb0  1  0.96667000  0.19267000  0.46612000  1.0
  Tb  Tb1  1  0.04849000  0.96189000  0.73455000  1.0
  Tb  Tb2  1  0.03333000  0.30733000  0.96612000  1.0
  Tb  Tb3  1  0.95151000  0.53811000  0.23455000  1.0
  Tb  Tb4  1  0.46667000  0.80733000  0.03388000  1.0
  Tb  Tb5  1  0.54849000  0.03811000  0.76545000  1.0
  Tb  Tb6  1  0.53333000  0.69267000  0.53388000  1.0
  Tb  Tb7  1  0.45151000  0.46189000  0.26545000  1.0
  Tb  Tb8  1  0.03333000  0.80733000  0.53388000  1.0
  Tb  Tb9  1  0.95151000  0.03811000  0.26545000  1.0
  Tb  Tb10  1  0.96667000  0.69267000  0.03388000  1.0
  Tb  Tb11  1  0.04849000  0.46189000  0.76545000  1.0
  Tb  Tb12  1  0.53333000  0.19267000  0.96612000  1.0
  Tb  Tb13  1  0.45151000  0.96189000  0.23455000  1.0
  Tb  Tb14  1  0.46667000  0.30733000  0.46612000  1.0
  Tb  Tb15  1  0.54849000  0.53811000  0.73455000  1.0
  H  H16  1  0.26790000  0.33360000  0.78370000  1.0
  H  H17  1  0.17270000  0.56520000  0.51440000  1.0
  H  H18  1  0.92410000  0.20490000  0.60910000  1.0
  H  H19  1  0.33770000  0.55640000  0.48600000  1.0
  H  H20  1  0.43430000  0.28340000  0.79920000  1.0
  H  H21  1  0.94270000  0.18810000  0.68240000  1.0
  H  H22  1  0.73210000  0.16640000  0.28370000  1.0
  H  H23  1  0.82730000  0.93480000  0.01440000  1.0
  H  H24  1  0.07590000  0.29510000  0.10910000  1.0
  H  H25  1  0.66230000  0.94360000  0.98600000  1.0
  H  H26  1  0.56570000  0.21660000  0.29920000  1.0
  H  H27  1  0.05730000  0.31190000  0.18240000  1.0
  H  H28  1  0.76790000  0.66640000  0.71630000  1.0
  H  H29  1  0.67270000  0.43480000  0.98560000  1.0
  H  H30  1  0.42410000  0.79510000  0.89090000  1.0
  H  H31  1  0.83770000  0.44360000  0.01400000  1.0
  H  H32  1  0.93430000  0.71660000  0.70080000  1.0
  H  H33  1  0.44270000  0.81190000  0.81760000  1.0
  H  H34  1  0.23210000  0.83360000  0.21630000  1.0
  H  H35  1  0.32730000  0.06520000  0.48560000  1.0
  H  H36  1  0.57590000  0.70490000  0.39090000  1.0
  H  H37  1  0.16230000  0.05640000  0.51400000  1.0
  H  H38  1  0.06570000  0.78340000  0.20080000  1.0
  H  H39  1  0.55730000  0.68810000  0.31760000  1.0
  H  H40  1  0.73210000  0.66640000  0.21630000  1.0
  H  H41  1  0.82730000  0.43480000  0.48560000  1.0
  H  H42  1  0.07590000  0.79510000  0.39090000  1.0
  H  H43  1  0.66230000  0.44360000  0.51400000  1.0
  H  H44  1  0.56570000  0.71660000  0.20080000  1.0
  H  H45  1  0.05730000  0.81190000  0.31760000  1.0
  H  H46  1  0.26790000  0.83360000  0.71630000  1.0
  H  H47  1  0.17270000  0.06520000  0.98560000  1.0
  H  H48  1  0.92410000  0.70490000  0.89090000  1.0
  H  H49  1  0.33770000  0.05640000  0.01400000  1.0
  H  H50  1  0.43430000  0.78340000  0.70080000  1.0
  H  H51  1  0.94270000  0.68810000  0.81760000  1.0
  H  H52  1  0.23210000  0.33360000  0.28370000  1.0
  H  H53  1  0.32730000  0.56520000  0.01440000  1.0
  H  H54  1  0.57590000  0.20490000  0.10910000  1.0
  H  H55  1  0.16230000  0.55640000  0.98600000  1.0
  H  H56  1  0.06570000  0.28340000  0.29920000  1.0
  H  H57  1  0.55730000  0.18810000  0.18240000  1.0
  H  H58  1  0.76790000  0.16640000  0.78370000  1.0
  H  H59  1  0.67270000  0.93480000  0.51440000  1.0
  H  H60  1  0.42410000  0.29510000  0.60910000  1.0
  H  H61  1  0.83770000  0.94360000  0.48600000  1.0
  H  H62  1  0.93430000  0.21660000  0.79920000  1.0
  H  H63  1  0.44270000  0.31190000  0.68240000  1.0
  C  C64  1  0.22410000  0.25160000  0.47200000  1.0
  C  C65  1  0.30490000  0.01770000  0.74020000  1.0
  C  C66  1  0.23780000  0.19720000  0.76120000  1.0
  C  C67  1  0.30670000  0.11970000  0.75890000  1.0
  C  C68  1  0.05250000  0.90000000  0.63500000  1.0
  C  C69  1  0.13140000  0.21150000  0.74800000  1.0
  C  C70  1  0.04940000  0.40490000  0.52110000  1.0
  C  C71  1  0.97760000  0.06580000  0.60240000  1.0
  C  C72  1  0.15310000  0.41950000  0.50160000  1.0
  C  C73  1  0.97520000  0.05760000  0.55620000  1.0
  C  C74  1  0.22020000  0.35870000  0.48300000  1.0
  C  C75  1  0.29130000  0.50360000  0.48780000  1.0
  C  C76  1  0.38460000  0.24340000  0.78700000  1.0
  C  C77  1  0.00590000  0.00260000  0.63360000  1.0
  C  C78  1  0.95780000  0.13940000  0.66260000  1.0
  C  C79  1  0.77590000  0.24840000  0.97200000  1.0
  C  C80  1  0.69510000  0.48230000  0.24020000  1.0
  C  C81  1  0.76220000  0.30280000  0.26120000  1.0
  C  C82  1  0.69330000  0.38030000  0.25890000  1.0
  C  C83  1  0.94750000  0.60000000  0.13500000  1.0
  C  C84  1  0.86860000  0.28850000  0.24800000  1.0
  C  C85  1  0.95060000  0.09510000  0.02110000  1.0
  C  C86  1  0.02240000  0.43420000  0.10240000  1.0
  C  C87  1  0.84690000  0.08050000  0.00160000  1.0
  C  C88  1  0.02480000  0.44240000  0.05620000  1.0
  C  C89  1  0.77980000  0.14130000  0.98300000  1.0
  C  C90  1  0.70870000  0.99640000  0.98780000  1.0
  C  C91  1  0.61540000  0.25660000  0.28700000  1.0
  C  C92  1  0.99410000  0.49740000  0.13360000  1.0
  C  C93  1  0.04220000  0.36060000  0.16260000  1.0
  C  C94  1  0.72410000  0.74840000  0.02800000  1.0
  C  C95  1  0.80490000  0.98230000  0.75980000  1.0
  C  C96  1  0.73780000  0.80280000  0.73880000  1.0
  C  C97  1  0.80670000  0.88030000  0.74110000  1.0
  C  C98  1  0.55250000  0.10000000  0.86500000  1.0
  C  C99  1  0.63140000  0.78850000  0.75200000  1.0
  C  C100  1  0.54940000  0.59510000  0.97890000  1.0
  C  C101  1  0.47760000  0.93420000  0.89760000  1.0
  C  C102  1  0.65310000  0.58050000  0.99840000  1.0
  C  C103  1  0.47520000  0.94240000  0.94380000  1.0
  C  C104  1  0.72020000  0.64130000  0.01700000  1.0
  C  C105  1  0.79130000  0.49640000  0.01220000  1.0
  C  C106  1  0.88460000  0.75660000  0.71300000  1.0
  C  C107  1  0.50590000  0.99740000  0.86640000  1.0
  C  C108  1  0.45780000  0.86060000  0.83740000  1.0
  C  C109  1  0.27590000  0.75160000  0.52800000  1.0
  C  C110  1  0.19510000  0.51770000  0.25980000  1.0
  C  C111  1  0.26220000  0.69720000  0.23880000  1.0
  C  C112  1  0.19330000  0.61970000  0.24110000  1.0
  C  C113  1  0.44750000  0.40000000  0.36500000  1.0
  C  C114  1  0.36860000  0.71150000  0.25200000  1.0
  C  C115  1  0.45060000  0.90490000  0.47890000  1.0
  C  C116  1  0.52240000  0.56580000  0.39760000  1.0
  C  C117  1  0.34690000  0.91950000  0.49840000  1.0
  C  C118  1  0.52480000  0.55760000  0.44380000  1.0
  C  C119  1  0.27980000  0.85870000  0.51700000  1.0
  C  C120  1  0.20870000  0.00360000  0.51220000  1.0
  C  C121  1  0.11540000  0.74340000  0.21300000  1.0
  C  C122  1  0.49410000  0.50260000  0.36640000  1.0
  C  C123  1  0.54220000  0.63940000  0.33740000  1.0
  C  C124  1  0.77590000  0.74840000  0.52800000  1.0
  C  C125  1  0.69510000  0.98230000  0.25980000  1.0
  C  C126  1  0.76220000  0.80280000  0.23880000  1.0
  C  C127  1  0.69330000  0.88030000  0.24110000  1.0
  C  C128  1  0.94750000  0.10000000  0.36500000  1.0
  C  C129  1  0.86860000  0.78850000  0.25200000  1.0
  C  C130  1  0.95060000  0.59510000  0.47890000  1.0
  C  C131  1  0.02240000  0.93420000  0.39760000  1.0
  C  C132  1  0.84690000  0.58050000  0.49840000  1.0
  C  C133  1  0.02480000  0.94240000  0.44380000  1.0
  C  C134  1  0.77980000  0.64130000  0.51700000  1.0
  C  C135  1  0.70870000  0.49640000  0.51220000  1.0
  C  C136  1  0.61540000  0.75660000  0.21300000  1.0
  C  C137  1  0.99410000  0.99740000  0.36640000  1.0
  C  C138  1  0.04220000  0.86060000  0.33740000  1.0
  C  C139  1  0.22410000  0.75160000  0.02800000  1.0
  C  C140  1  0.30490000  0.51770000  0.75980000  1.0
  C  C141  1  0.23780000  0.69720000  0.73880000  1.0
  C  C142  1  0.30670000  0.61970000  0.74110000  1.0
  C  C143  1  0.05250000  0.40000000  0.86500000  1.0
  C  C144  1  0.13140000  0.71150000  0.75200000  1.0
  C  C145  1  0.04940000  0.90490000  0.97890000  1.0
  C  C146  1  0.97760000  0.56580000  0.89760000  1.0
  C  C147  1  0.15310000  0.91950000  0.99840000  1.0
  C  C148  1  0.97520000  0.55760000  0.94380000  1.0
  C  C149  1  0.22020000  0.85870000  0.01700000  1.0
  C  C150  1  0.29130000  0.00360000  0.01220000  1.0
  C  C151  1  0.38460000  0.74340000  0.71300000  1.0
  C  C152  1  0.00590000  0.50260000  0.86640000  1.0
  C  C153  1  0.95780000  0.63940000  0.83740000  1.0
  C  C154  1  0.27590000  0.25160000  0.97200000  1.0
  C  C155  1  0.19510000  0.01770000  0.24020000  1.0
  C  C156  1  0.26220000  0.19720000  0.26120000  1.0
  C  C157  1  0.19330000  0.11970000  0.25890000  1.0
  C  C158  1  0.44750000  0.90000000  0.13500000  1.0
  C  C159  1  0.36860000  0.21150000  0.24800000  1.0
  C  C160  1  0.45060000  0.40490000  0.02110000  1.0
  C  C161  1  0.52240000  0.06580000  0.10240000  1.0
  C  C162  1  0.34690000  0.41950000  0.00160000  1.0
  C  C163  1  0.52480000  0.05760000  0.05620000  1.0
  C  C164  1  0.27980000  0.35870000  0.98300000  1.0
  C  C165  1  0.20870000  0.50360000  0.98780000  1.0
  C  C166  1  0.11540000  0.24340000  0.28700000  1.0
  C  C167  1  0.49410000  0.00260000  0.13360000  1.0
  C  C168  1  0.54220000  0.13940000  0.16260000  1.0
  C  C169  1  0.72410000  0.24840000  0.47200000  1.0
  C  C170  1  0.80490000  0.48230000  0.74020000  1.0
  C  C171  1  0.73780000  0.30280000  0.76120000  1.0
  C  C172  1  0.80670000  0.38030000  0.75890000  1.0
  C  C173  1  0.55250000  0.60000000  0.63500000  1.0
  C  C174  1  0.63140000  0.28850000  0.74800000  1.0
  C  C175  1  0.54940000  0.09510000  0.52110000  1.0
  C  C176  1  0.47760000  0.43420000  0.60240000  1.0
  C  C177  1  0.65310000  0.08050000  0.50160000  1.0
  C  C178  1  0.47520000  0.44240000  0.55620000  1.0
  C  C179  1  0.72020000  0.14130000  0.48300000  1.0
  C  C180  1  0.79130000  0.99640000  0.48780000  1.0
  C  C181  1  0.88460000  0.25660000  0.78700000  1.0
  C  C182  1  0.50590000  0.49740000  0.63360000  1.0
  C  C183  1  0.45780000  0.36060000  0.66260000  1.0
  N  N184  1  0.99280000  0.04940000  0.67110000  1.0
  N  N185  1  0.29130000  0.27430000  0.77870000  1.0
  N  N186  1  0.30900000  0.41120000  0.47440000  1.0
  N  N187  1  0.39870000  0.14860000  0.77570000  1.0
  N  N188  1  0.19900000  0.51140000  0.50410000  1.0
  N  N189  1  0.94670000  0.15180000  0.62130000  1.0
  N  N190  1  0.00720000  0.45060000  0.17110000  1.0
  N  N191  1  0.70870000  0.22570000  0.27870000  1.0
  N  N192  1  0.69100000  0.08880000  0.97440000  1.0
  N  N193  1  0.60130000  0.35140000  0.27570000  1.0
  N  N194  1  0.80100000  0.98860000  0.00410000  1.0
  N  N195  1  0.05330000  0.34820000  0.12130000  1.0
  N  N196  1  0.49280000  0.95060000  0.82890000  1.0
  N  N197  1  0.79130000  0.72570000  0.72130000  1.0
  N  N198  1  0.80900000  0.58880000  0.02560000  1.0
  N  N199  1  0.89870000  0.85140000  0.72430000  1.0
  N  N200  1  0.69900000  0.48860000  0.99590000  1.0
  N  N201  1  0.44670000  0.84820000  0.87870000  1.0
  N  N202  1  0.50720000  0.54940000  0.32890000  1.0
  N  N203  1  0.20870000  0.77430000  0.22130000  1.0
  N  N204  1  0.19100000  0.91120000  0.52560000  1.0
  N  N205  1  0.10130000  0.64860000  0.22430000  1.0
  N  N206  1  0.30100000  0.01140000  0.49590000  1.0
  N  N207  1  0.55330000  0.65180000  0.37870000  1.0
  N  N208  1  0.00720000  0.95060000  0.32890000  1.0
  N  N209  1  0.70870000  0.72570000  0.22130000  1.0
  N  N210  1  0.69100000  0.58880000  0.52560000  1.0
  N  N211  1  0.60130000  0.85140000  0.22430000  1.0
  N  N212  1  0.80100000  0.48860000  0.49590000  1.0
  N  N213  1  0.05330000  0.84820000  0.37870000  1.0
  N  N214  1  0.99280000  0.54940000  0.82890000  1.0
  N  N215  1  0.29130000  0.77430000  0.72130000  1.0
  N  N216  1  0.30900000  0.91120000  0.02560000  1.0
  N  N217  1  0.39870000  0.64860000  0.72430000  1.0
  N  N218  1  0.19900000  0.01140000  0.99590000  1.0
  N  N219  1  0.94670000  0.65180000  0.87870000  1.0
  N  N220  1  0.50720000  0.04940000  0.17110000  1.0
  N  N221  1  0.20870000  0.27430000  0.27870000  1.0
  N  N222  1  0.19100000  0.41120000  0.97440000  1.0
  N  N223  1  0.10130000  0.14860000  0.27570000  1.0
  N  N224  1  0.30100000  0.51140000  0.00410000  1.0
  N  N225  1  0.55330000  0.15180000  0.12130000  1.0
  N  N226  1  0.49280000  0.45060000  0.67110000  1.0
  N  N227  1  0.79130000  0.22570000  0.77870000  1.0
  N  N228  1  0.80900000  0.08880000  0.47440000  1.0
  N  N229  1  0.89870000  0.35140000  0.77570000  1.0
  N  N230  1  0.69900000  0.98860000  0.50410000  1.0
  N  N231  1  0.44670000  0.34820000  0.62130000  1.0
  O  O232  1  0.97610000  0.97060000  0.54140000  1.0
  O  O233  1  0.99710000  0.33180000  0.51020000  1.0
  O  O234  1  0.97420000  0.13820000  0.53640000  1.0
  O  O235  1  0.10130000  0.30150000  0.74440000  1.0
  O  O236  1  0.22410000  0.97770000  0.72580000  1.0
  O  O237  1  0.06400000  0.84950000  0.60300000  1.0
  O  O238  1  0.08170000  0.87190000  0.67020000  1.0
  O  O239  1  0.14550000  0.19910000  0.46920000  1.0
  O  O240  1  0.31220000  0.21490000  0.46530000  1.0
  O  O241  1  0.39040000  0.97430000  0.73870000  1.0
  O  O242  1  0.07440000  0.13670000  0.74230000  1.0
  O  O243  1  0.02570000  0.46640000  0.54810000  1.0
  O  O244  1  0.02390000  0.52940000  0.04140000  1.0
  O  O245  1  0.00290000  0.16820000  0.01020000  1.0
  O  O246  1  0.02580000  0.36180000  0.03640000  1.0
  O  O247  1  0.89870000  0.19850000  0.24440000  1.0
  O  O248  1  0.77590000  0.52230000  0.22580000  1.0
  O  O249  1  0.93600000  0.65050000  0.10300000  1.0
  O  O250  1  0.91830000  0.62810000  0.17020000  1.0
  O  O251  1  0.85450000  0.30090000  0.96920000  1.0
  O  O252  1  0.68780000  0.28510000  0.96530000  1.0
  O  O253  1  0.60960000  0.52570000  0.23870000  1.0
  O  O254  1  0.92560000  0.36330000  0.24230000  1.0
  O  O255  1  0.97430000  0.03360000  0.04810000  1.0
  O  O256  1  0.47610000  0.02940000  0.95860000  1.0
  O  O257  1  0.49710000  0.66820000  0.98980000  1.0
  O  O258  1  0.47420000  0.86180000  0.96360000  1.0
  O  O259  1  0.60130000  0.69850000  0.75560000  1.0
  O  O260  1  0.72410000  0.02230000  0.77420000  1.0
  O  O261  1  0.56400000  0.15050000  0.89700000  1.0
  O  O262  1  0.58170000  0.12810000  0.82980000  1.0
  O  O263  1  0.64550000  0.80090000  0.03080000  1.0
  O  O264  1  0.81220000  0.78510000  0.03470000  1.0
  O  O265  1  0.89040000  0.02570000  0.76130000  1.0
  O  O266  1  0.57440000  0.86330000  0.75770000  1.0
  O  O267  1  0.52570000  0.53360000  0.95190000  1.0
  O  O268  1  0.52390000  0.47060000  0.45860000  1.0
  O  O269  1  0.50290000  0.83180000  0.48980000  1.0
  O  O270  1  0.52580000  0.63820000  0.46360000  1.0
  O  O271  1  0.39870000  0.80150000  0.25560000  1.0
  O  O272  1  0.27590000  0.47770000  0.27420000  1.0
  O  O273  1  0.43600000  0.34950000  0.39700000  1.0
  O  O274  1  0.41830000  0.37190000  0.32980000  1.0
  O  O275  1  0.35450000  0.69910000  0.53080000  1.0
  O  O276  1  0.18780000  0.71490000  0.53470000  1.0
  O  O277  1  0.10960000  0.47430000  0.26130000  1.0
  O  O278  1  0.42560000  0.63670000  0.25770000  1.0
  O  O279  1  0.47430000  0.96640000  0.45190000  1.0
  O  O280  1  0.02390000  0.02940000  0.45860000  1.0
  O  O281  1  0.00290000  0.66820000  0.48980000  1.0
  O  O282  1  0.02580000  0.86180000  0.46360000  1.0
  O  O283  1  0.89870000  0.69850000  0.25560000  1.0
  O  O284  1  0.77590000  0.02230000  0.27420000  1.0
  O  O285  1  0.93600000  0.15050000  0.39700000  1.0
  O  O286  1  0.91830000  0.12810000  0.32980000  1.0
  O  O287  1  0.85450000  0.80090000  0.53080000  1.0
  O  O288  1  0.68780000  0.78510000  0.53470000  1.0
  O  O289  1  0.60960000  0.02570000  0.26130000  1.0
  O  O290  1  0.92560000  0.86330000  0.25770000  1.0
  O  O291  1  0.97430000  0.53360000  0.45190000  1.0
  O  O292  1  0.97610000  0.47060000  0.95860000  1.0
  O  O293  1  0.99710000  0.83180000  0.98980000  1.0
  O  O294  1  0.97420000  0.63820000  0.96360000  1.0
  O  O295  1  0.10130000  0.80150000  0.75560000  1.0
  O  O296  1  0.22410000  0.47770000  0.77420000  1.0
  O  O297  1  0.06400000  0.34950000  0.89700000  1.0
  O  O298  1  0.08170000  0.37190000  0.82980000  1.0
  O  O299  1  0.14550000  0.69910000  0.03080000  1.0
  O  O300  1  0.31220000  0.71490000  0.03470000  1.0
  O  O301  1  0.39040000  0.47430000  0.76130000  1.0
  O  O302  1  0.07440000  0.63670000  0.75770000  1.0
  O  O303  1  0.02570000  0.96640000  0.95190000  1.0
  O  O304  1  0.52390000  0.97060000  0.04140000  1.0
  O  O305  1  0.50290000  0.33180000  0.01020000  1.0
  O  O306  1  0.52580000  0.13820000  0.03640000  1.0
  O  O307  1  0.39870000  0.30150000  0.24440000  1.0
  O  O308  1  0.27590000  0.97770000  0.22580000  1.0
  O  O309  1  0.43600000  0.84950000  0.10300000  1.0
  O  O310  1  0.41830000  0.87190000  0.17020000  1.0
  O  O311  1  0.35450000  0.19910000  0.96920000  1.0
  O  O312  1  0.18780000  0.21490000  0.96530000  1.0
  O  O313  1  0.10960000  0.97430000  0.23870000  1.0
  O  O314  1  0.42560000  0.13670000  0.24230000  1.0
  O  O315  1  0.47430000  0.46640000  0.04810000  1.0
  O  O316  1  0.47610000  0.52940000  0.54140000  1.0
  O  O317  1  0.49710000  0.16820000  0.51020000  1.0
  O  O318  1  0.47420000  0.36180000  0.53640000  1.0
  O  O319  1  0.60130000  0.19850000  0.74440000  1.0
  O  O320  1  0.72410000  0.52230000  0.72580000  1.0
  O  O321  1  0.56400000  0.65050000  0.60300000  1.0
  O  O322  1  0.58170000  0.62810000  0.67020000  1.0
  O  O323  1  0.64550000  0.30090000  0.46920000  1.0
  O  O324  1  0.81220000  0.28510000  0.46530000  1.0
  O  O325  1  0.89040000  0.52570000  0.73870000  1.0
  O  O326  1  0.57440000  0.36330000  0.74230000  1.0
  O  O327  1  0.52570000  0.03360000  0.54810000  1.0
