# generated using pymatgen
data_EuZnH5C13(NO4)2
_symmetry_space_group_name_H-M   'P 1'
_cell_length_a   9.58680000
_cell_length_b   10.12550000
_cell_length_c   20.20950000
_cell_angle_alpha   103.14600000
_cell_angle_beta   90.00000000
_cell_angle_gamma   90.00000000
_symmetry_Int_Tables_number   1
_chemical_formula_structural   EuZnH5C13(NO4)2
_chemical_formula_sum   'Eu4 Zn4 H20 C52 N8 O32'
_cell_volume   1910.34879319
_cell_formula_units_Z   4
loop_
 _symmetry_equiv_pos_site_id
 _symmetry_equiv_pos_as_xyz
  1  'x, y, z'
loop_
 _atom_site_type_symbol
 _atom_site_label
 _atom_site_symmetry_multiplicity
 _atom_site_fract_x
 _atom_site_fract_y
 _atom_site_fract_z
 _atom_site_occupancy
  Eu  Eu0  1  0.42941000  0.76883000  0.79843000  1.0
  Eu  Eu1  1  0.92941000  0.73116000  0.70157000  1.0
  Eu  Eu2  1  0.57059000  0.23116000  0.20157000  1.0
  Eu  Eu3  1  0.07059000  0.26883000  0.29843000  1.0
  Zn  Zn4  1  0.86129000  0.30294000  0.66367000  1.0
  Zn  Zn5  1  0.36129000  0.19706000  0.83633000  1.0
  Zn  Zn6  1  0.13871000  0.69706000  0.33633000  1.0
  Zn  Zn7  1  0.63871000  0.80294000  0.16367000  1.0
  H  H8  1  0.00780000  0.94390000  0.15330000  1.0
  H  H9  1  0.90250000  0.82180000  0.05630000  1.0
  H  H10  1  0.01960000  0.77950000  0.95450000  1.0
  H  H11  1  0.35160000  0.98340000  0.04680000  1.0
  H  H12  1  0.62570000  0.10220000  0.72040000  1.0
  H  H13  1  0.50780000  0.55610000  0.34670000  1.0
  H  H14  1  0.40250000  0.67820000  0.44370000  1.0
  H  H15  1  0.51960000  0.72050000  0.54550000  1.0
  H  H16  1  0.85160000  0.51660000  0.45320000  1.0
  H  H17  1  0.12570000  0.39780000  0.77960000  1.0
  H  H18  1  0.99220000  0.05610000  0.84670000  1.0
  H  H19  1  0.09750000  0.17820000  0.94370000  1.0
  H  H20  1  0.98040000  0.22050000  0.04550000  1.0
  H  H21  1  0.64840000  0.01660000  0.95320000  1.0
  H  H22  1  0.37430000  0.89780000  0.27960000  1.0
  H  H23  1  0.49220000  0.44390000  0.65330000  1.0
  H  H24  1  0.59750000  0.32180000  0.55630000  1.0
  H  H25  1  0.48040000  0.27950000  0.45450000  1.0
  H  H26  1  0.14840000  0.48340000  0.54680000  1.0
  H  H27  1  0.87430000  0.60220000  0.22040000  1.0
  C  C28  1  0.19070000  0.97450000  0.11040000  1.0
  C  C29  1  0.05610000  0.92670000  0.11240000  1.0
  C  C30  1  0.99290000  0.85380000  0.05430000  1.0
  C  C31  1  0.06300000  0.82840000  0.99360000  1.0
  C  C32  1  0.19790000  0.87512000  0.99012000  1.0
  C  C33  1  0.26170000  0.94998000  0.04888000  1.0
  C  C34  1  0.27470000  0.84541000  0.92411000  1.0
  C  C35  1  0.25880000  0.05384000  0.17444000  1.0
  C  C36  1  0.70230000  0.53525000  0.73895000  1.0
  C  C37  1  0.63900000  0.41176000  0.75256000  1.0
  C  C38  1  0.53650000  0.38730000  0.79610000  1.0
  C  C39  1  0.44900000  0.47409000  0.84879000  1.0
  C  C40  1  0.61390000  0.19500000  0.73730000  1.0
  C  C41  1  0.69070000  0.52550000  0.38960000  1.0
  C  C42  1  0.55610000  0.57330000  0.38760000  1.0
  C  C43  1  0.49290000  0.64620000  0.44570000  1.0
  C  C44  1  0.56300000  0.67160000  0.50640000  1.0
  C  C45  1  0.69790000  0.62488000  0.50988000  1.0
  C  C46  1  0.76170000  0.55002000  0.45112000  1.0
  C  C47  1  0.77470000  0.65459000  0.57589000  1.0
  C  C48  1  0.75880000  0.44616000  0.32556000  1.0
  C  C49  1  0.20230000  0.96475000  0.76105000  1.0
  C  C50  1  0.13900000  0.08824000  0.74744000  1.0
  C  C51  1  0.03650000  0.11270000  0.70390000  1.0
  C  C52  1  0.94900000  0.02591000  0.65121000  1.0
  C  C53  1  0.11390000  0.30500000  0.76270000  1.0
  C  C54  1  0.80930000  0.02550000  0.88960000  1.0
  C  C55  1  0.94390000  0.07330000  0.88760000  1.0
  C  C56  1  0.00710000  0.14620000  0.94570000  1.0
  C  C57  1  0.93700000  0.17160000  0.00640000  1.0
  C  C58  1  0.80210000  0.12488000  0.00988000  1.0
  C  C59  1  0.73830000  0.05002000  0.95112000  1.0
  C  C60  1  0.72530000  0.15459000  0.07589000  1.0
  C  C61  1  0.74120000  0.94616000  0.82556000  1.0
  C  C62  1  0.29770000  0.46475000  0.26105000  1.0
  C  C63  1  0.36100000  0.58824000  0.24744000  1.0
  C  C64  1  0.46350000  0.61270000  0.20390000  1.0
  C  C65  1  0.55100000  0.52591000  0.15121000  1.0
  C  C66  1  0.38610000  0.80500000  0.26270000  1.0
  C  C67  1  0.30930000  0.47450000  0.61040000  1.0
  C  C68  1  0.44390000  0.42670000  0.61240000  1.0
  C  C69  1  0.50710000  0.35380000  0.55430000  1.0
  C  C70  1  0.43700000  0.32840000  0.49360000  1.0
  C  C71  1  0.30210000  0.37512000  0.49012000  1.0
  C  C72  1  0.23830000  0.44998000  0.54888000  1.0
  C  C73  1  0.22530000  0.34541000  0.42411000  1.0
  C  C74  1  0.24120000  0.55384000  0.67444000  1.0
  C  C75  1  0.79770000  0.03525000  0.23895000  1.0
  C  C76  1  0.86100000  0.91176000  0.25256000  1.0
  C  C77  1  0.96350000  0.88730000  0.29610000  1.0
  C  C78  1  0.05100000  0.97409000  0.34879000  1.0
  C  C79  1  0.88610000  0.69500000  0.23730000  1.0
  N  N80  1  0.68700000  0.28940000  0.71580000  1.0
  N  N81  1  0.52160000  0.24848000  0.78568000  1.0
  N  N82  1  0.18700000  0.21060000  0.78420000  1.0
  N  N83  1  0.02160000  0.25152000  0.71432000  1.0
  N  N84  1  0.31300000  0.71060000  0.28420000  1.0
  N  N85  1  0.47840000  0.75152000  0.21432000  1.0
  N  N86  1  0.81300000  0.78940000  0.21580000  1.0
  N  N87  1  0.97840000  0.74848000  0.28568000  1.0
  O  O88  1  0.21960000  0.77213000  0.87193000  1.0
  O  O89  1  0.39720000  0.89067000  0.92087000  1.0
  O  O90  1  0.38630000  0.07913000  0.17173000  1.0
  O  O91  1  0.18560000  0.08687000  0.22737000  1.0
  O  O92  1  0.65190000  0.64987000  0.75917000  1.0
  O  O93  1  0.81420000  0.51485000  0.70345000  1.0
  O  O94  1  0.46800000  0.60109000  0.86229000  1.0
  O  O95  1  0.36200000  0.41530000  0.87800000  1.0
  O  O96  1  0.71960000  0.72787000  0.62807000  1.0
  O  O97  1  0.89720000  0.60933000  0.57913000  1.0
  O  O98  1  0.88630000  0.42087000  0.32827000  1.0
  O  O99  1  0.68560000  0.41313000  0.27263000  1.0
  O  O100  1  0.15190000  0.85013000  0.74083000  1.0
  O  O101  1  0.31420000  0.98515000  0.79655000  1.0
  O  O102  1  0.96800000  0.89891000  0.63771000  1.0
  O  O103  1  0.86200000  0.08470000  0.62200000  1.0
  O  O104  1  0.78040000  0.22787000  0.12807000  1.0
  O  O105  1  0.60280000  0.10933000  0.07913000  1.0
  O  O106  1  0.61370000  0.92087000  0.82827000  1.0
  O  O107  1  0.81440000  0.91313000  0.77263000  1.0
  O  O108  1  0.34810000  0.35013000  0.24083000  1.0
  O  O109  1  0.18580000  0.48515000  0.29655000  1.0
  O  O110  1  0.53200000  0.39891000  0.13771000  1.0
  O  O111  1  0.63800000  0.58470000  0.12200000  1.0
  O  O112  1  0.28040000  0.27213000  0.37193000  1.0
  O  O113  1  0.10280000  0.39067000  0.42087000  1.0
  O  O114  1  0.11370000  0.57913000  0.67173000  1.0
  O  O115  1  0.31440000  0.58687000  0.72737000  1.0
  O  O116  1  0.84810000  0.14987000  0.25917000  1.0
  O  O117  1  0.68580000  0.01485000  0.20345000  1.0
  O  O118  1  0.03200000  0.10109000  0.36229000  1.0
  O  O119  1  0.13800000  0.91530000  0.37800000  1.0
