# generated using pymatgen
data_Zn11H18(C3O2)18
_symmetry_space_group_name_H-M   'P 1'
_cell_length_a   20.57300000
_cell_length_b   20.57300000
_cell_length_c   20.57300000
_cell_angle_alpha   90.00000000
_cell_angle_beta   90.00000000
_cell_angle_gamma   90.00000000
_symmetry_Int_Tables_number   1
_chemical_formula_structural   Zn11H18(C3O2)18
_chemical_formula_sum   'Zn22 H36 C108 O72'
_cell_volume   8707.48787252
_cell_formula_units_Z   2
loop_
 _symmetry_equiv_pos_site_id
 _symmetry_equiv_pos_as_xyz
  1  'x, y, z'
loop_
 _atom_site_type_symbol
 _atom_site_label
 _atom_site_symmetry_multiplicity
 _atom_site_fract_x
 _atom_site_fract_y
 _atom_site_fract_z
 _atom_site_occupancy
  Zn  Zn0  1  0.50000000  0.92757000  0.50000000  1.0
  Zn  Zn1  1  0.50000000  0.07243000  0.50000000  1.0
  Zn  Zn2  1  0.50000000  0.50000000  0.92757000  1.0
  Zn  Zn3  1  0.50000000  0.50000000  0.07243000  1.0
  Zn  Zn4  1  0.92757000  0.50000000  0.50000000  1.0
  Zn  Zn5  1  0.07243000  0.50000000  0.50000000  1.0
  Zn  Zn6  1  0.73681000  0.26319000  0.73681000  1.0
  Zn  Zn7  1  0.83476000  0.16524000  0.83476000  1.0
  Zn  Zn8  1  0.26319000  0.73681000  0.73681000  1.0
  Zn  Zn9  1  0.16524000  0.83476000  0.83476000  1.0
  Zn  Zn10  1  0.26319000  0.26319000  0.26319000  1.0
  Zn  Zn11  1  0.16524000  0.16524000  0.16524000  1.0
  Zn  Zn12  1  0.73681000  0.73681000  0.26319000  1.0
  Zn  Zn13  1  0.83476000  0.83476000  0.16524000  1.0
  Zn  Zn14  1  0.26319000  0.73681000  0.26319000  1.0
  Zn  Zn15  1  0.16524000  0.83476000  0.16524000  1.0
  Zn  Zn16  1  0.73681000  0.26319000  0.26319000  1.0
  Zn  Zn17  1  0.83476000  0.16524000  0.16524000  1.0
  Zn  Zn18  1  0.26319000  0.26319000  0.73681000  1.0
  Zn  Zn19  1  0.16524000  0.16524000  0.83476000  1.0
  Zn  Zn20  1  0.73681000  0.73681000  0.73681000  1.0
  Zn  Zn21  1  0.83476000  0.83476000  0.83476000  1.0
  H  H22  1  0.76690000  0.00000000  0.76690000  1.0
  H  H23  1  0.23310000  0.00000000  0.76690000  1.0
  H  H24  1  0.23310000  0.00000000  0.23310000  1.0
  H  H25  1  0.76690000  0.00000000  0.23310000  1.0
  H  H26  1  0.76690000  0.76690000  0.00000000  1.0
  H  H27  1  0.76690000  0.23310000  0.00000000  1.0
  H  H28  1  0.23310000  0.23310000  0.00000000  1.0
  H  H29  1  0.23310000  0.76690000  0.00000000  1.0
  H  H30  1  0.00000000  0.76690000  0.76690000  1.0
  H  H31  1  0.00000000  0.76690000  0.23310000  1.0
  H  H32  1  0.00000000  0.23310000  0.23310000  1.0
  H  H33  1  0.00000000  0.23310000  0.76690000  1.0
  H  H34  1  0.65090000  0.09890000  0.65090000  1.0
  H  H35  1  0.34910000  0.90110000  0.65090000  1.0
  H  H36  1  0.34910000  0.09890000  0.34910000  1.0
  H  H37  1  0.65090000  0.90110000  0.34910000  1.0
  H  H38  1  0.65090000  0.65090000  0.09890000  1.0
  H  H39  1  0.65090000  0.34910000  0.90110000  1.0
  H  H40  1  0.34910000  0.34910000  0.09890000  1.0
  H  H41  1  0.34910000  0.65090000  0.90110000  1.0
  H  H42  1  0.09890000  0.65090000  0.65090000  1.0
  H  H43  1  0.90110000  0.65090000  0.34910000  1.0
  H  H44  1  0.09890000  0.34910000  0.34910000  1.0
  H  H45  1  0.90110000  0.34910000  0.65090000  1.0
  H  H46  1  0.09890000  0.65090000  0.34910000  1.0
  H  H47  1  0.90110000  0.34910000  0.34910000  1.0
  H  H48  1  0.09890000  0.34910000  0.65090000  1.0
  H  H49  1  0.90110000  0.65090000  0.65090000  1.0
  H  H50  1  0.65090000  0.65090000  0.90110000  1.0
  H  H51  1  0.34910000  0.65090000  0.09890000  1.0
  H  H52  1  0.34910000  0.34910000  0.90110000  1.0
  H  H53  1  0.65090000  0.34910000  0.09890000  1.0
  H  H54  1  0.65090000  0.09890000  0.34910000  1.0
  H  H55  1  0.65090000  0.90110000  0.65090000  1.0
  H  H56  1  0.34910000  0.09890000  0.65090000  1.0
  H  H57  1  0.34910000  0.90110000  0.34910000  1.0
  C  C58  1  0.64000000  0.00000000  0.64000000  1.0
  C  C59  1  0.73490000  0.00000000  0.73490000  1.0
  C  C60  1  0.58670000  0.00000000  0.58670000  1.0
  C  C61  1  0.36000000  0.00000000  0.64000000  1.0
  C  C62  1  0.26510000  0.00000000  0.73490000  1.0
  C  C63  1  0.41330000  0.00000000  0.58670000  1.0
  C  C64  1  0.36000000  0.00000000  0.36000000  1.0
  C  C65  1  0.26510000  0.00000000  0.26510000  1.0
  C  C66  1  0.41330000  0.00000000  0.41330000  1.0
  C  C67  1  0.64000000  0.00000000  0.36000000  1.0
  C  C68  1  0.73490000  0.00000000  0.26510000  1.0
  C  C69  1  0.58670000  0.00000000  0.41330000  1.0
  C  C70  1  0.64000000  0.64000000  0.00000000  1.0
  C  C71  1  0.73490000  0.73490000  0.00000000  1.0
  C  C72  1  0.58670000  0.58670000  0.00000000  1.0
  C  C73  1  0.64000000  0.36000000  0.00000000  1.0
  C  C74  1  0.73490000  0.26510000  0.00000000  1.0
  C  C75  1  0.58670000  0.41330000  0.00000000  1.0
  C  C76  1  0.36000000  0.36000000  0.00000000  1.0
  C  C77  1  0.26510000  0.26510000  0.00000000  1.0
  C  C78  1  0.41330000  0.41330000  0.00000000  1.0
  C  C79  1  0.36000000  0.64000000  0.00000000  1.0
  C  C80  1  0.26510000  0.73490000  0.00000000  1.0
  C  C81  1  0.41330000  0.58670000  0.00000000  1.0
  C  C82  1  0.00000000  0.64000000  0.64000000  1.0
  C  C83  1  0.00000000  0.73490000  0.73490000  1.0
  C  C84  1  0.00000000  0.58670000  0.58670000  1.0
  C  C85  1  0.00000000  0.64000000  0.36000000  1.0
  C  C86  1  0.00000000  0.73490000  0.26510000  1.0
  C  C87  1  0.00000000  0.58670000  0.41330000  1.0
  C  C88  1  0.00000000  0.36000000  0.36000000  1.0
  C  C89  1  0.00000000  0.26510000  0.26510000  1.0
  C  C90  1  0.00000000  0.41330000  0.41330000  1.0
  C  C91  1  0.00000000  0.36000000  0.64000000  1.0
  C  C92  1  0.00000000  0.26510000  0.73490000  1.0
  C  C93  1  0.00000000  0.41330000  0.58670000  1.0
  C  C94  1  0.66590000  0.05900000  0.66590000  1.0
  C  C95  1  0.71180000  0.05700000  0.71180000  1.0
  C  C96  1  0.73900000  0.11880000  0.73900000  1.0
  C  C97  1  0.33410000  0.94100000  0.66590000  1.0
  C  C98  1  0.28820000  0.94300000  0.71180000  1.0
  C  C99  1  0.26100000  0.88120000  0.73900000  1.0
  C  C100  1  0.33410000  0.05900000  0.33410000  1.0
  C  C101  1  0.28820000  0.05700000  0.28820000  1.0
  C  C102  1  0.26100000  0.11880000  0.26100000  1.0
  C  C103  1  0.66590000  0.94100000  0.33410000  1.0
  C  C104  1  0.71180000  0.94300000  0.28820000  1.0
  C  C105  1  0.73900000  0.88120000  0.26100000  1.0
  C  C106  1  0.66590000  0.66590000  0.05900000  1.0
  C  C107  1  0.71180000  0.71180000  0.05700000  1.0
  C  C108  1  0.73900000  0.73900000  0.11880000  1.0
  C  C109  1  0.66590000  0.33410000  0.94100000  1.0
  C  C110  1  0.71180000  0.28820000  0.94300000  1.0
  C  C111  1  0.73900000  0.26100000  0.88120000  1.0
  C  C112  1  0.33410000  0.33410000  0.05900000  1.0
  C  C113  1  0.28820000  0.28820000  0.05700000  1.0
  C  C114  1  0.26100000  0.26100000  0.11880000  1.0
  C  C115  1  0.33410000  0.66590000  0.94100000  1.0
  C  C116  1  0.28820000  0.71180000  0.94300000  1.0
  C  C117  1  0.26100000  0.73900000  0.88120000  1.0
  C  C118  1  0.05900000  0.66590000  0.66590000  1.0
  C  C119  1  0.05700000  0.71180000  0.71180000  1.0
  C  C120  1  0.11880000  0.73900000  0.73900000  1.0
  C  C121  1  0.94100000  0.66590000  0.33410000  1.0
  C  C122  1  0.94300000  0.71180000  0.28820000  1.0
  C  C123  1  0.88120000  0.73900000  0.26100000  1.0
  C  C124  1  0.05900000  0.33410000  0.33410000  1.0
  C  C125  1  0.05700000  0.28820000  0.28820000  1.0
  C  C126  1  0.11880000  0.26100000  0.26100000  1.0
  C  C127  1  0.94100000  0.33410000  0.66590000  1.0
  C  C128  1  0.94300000  0.28820000  0.71180000  1.0
  C  C129  1  0.88120000  0.26100000  0.73900000  1.0
  C  C130  1  0.05900000  0.66590000  0.33410000  1.0
  C  C131  1  0.05700000  0.71180000  0.28820000  1.0
  C  C132  1  0.11880000  0.73900000  0.26100000  1.0
  C  C133  1  0.94100000  0.33410000  0.33410000  1.0
  C  C134  1  0.94300000  0.28820000  0.28820000  1.0
  C  C135  1  0.88120000  0.26100000  0.26100000  1.0
  C  C136  1  0.05900000  0.33410000  0.66590000  1.0
  C  C137  1  0.05700000  0.28820000  0.71180000  1.0
  C  C138  1  0.11880000  0.26100000  0.73900000  1.0
  C  C139  1  0.94100000  0.66590000  0.66590000  1.0
  C  C140  1  0.94300000  0.71180000  0.71180000  1.0
  C  C141  1  0.88120000  0.73900000  0.73900000  1.0
  C  C142  1  0.66590000  0.66590000  0.94100000  1.0
  C  C143  1  0.71180000  0.71180000  0.94300000  1.0
  C  C144  1  0.73900000  0.73900000  0.88120000  1.0
  C  C145  1  0.33410000  0.66590000  0.05900000  1.0
  C  C146  1  0.28820000  0.71180000  0.05700000  1.0
  C  C147  1  0.26100000  0.73900000  0.11880000  1.0
  C  C148  1  0.33410000  0.33410000  0.94100000  1.0
  C  C149  1  0.28820000  0.28820000  0.94300000  1.0
  C  C150  1  0.26100000  0.26100000  0.88120000  1.0
  C  C151  1  0.66590000  0.33410000  0.05900000  1.0
  C  C152  1  0.71180000  0.28820000  0.05700000  1.0
  C  C153  1  0.73900000  0.26100000  0.11880000  1.0
  C  C154  1  0.66590000  0.05900000  0.33410000  1.0
  C  C155  1  0.71180000  0.05700000  0.28820000  1.0
  C  C156  1  0.73900000  0.11880000  0.26100000  1.0
  C  C157  1  0.66590000  0.94100000  0.66590000  1.0
  C  C158  1  0.71180000  0.94300000  0.71180000  1.0
  C  C159  1  0.73900000  0.88120000  0.73900000  1.0
  C  C160  1  0.33410000  0.05900000  0.66590000  1.0
  C  C161  1  0.28820000  0.05700000  0.71180000  1.0
  C  C162  1  0.26100000  0.11880000  0.73900000  1.0
  C  C163  1  0.33410000  0.94100000  0.33410000  1.0
  C  C164  1  0.28820000  0.94300000  0.28820000  1.0
  C  C165  1  0.26100000  0.88120000  0.26100000  1.0
  O  O166  1  0.56820000  0.94610000  0.56820000  1.0
  O  O167  1  0.71690000  0.17170000  0.71690000  1.0
  O  O168  1  0.78140000  0.11230000  0.78140000  1.0
  O  O169  1  0.43180000  0.05390000  0.56820000  1.0
  O  O170  1  0.28310000  0.82830000  0.71690000  1.0
  O  O171  1  0.21860000  0.88770000  0.78140000  1.0
  O  O172  1  0.43180000  0.94610000  0.43180000  1.0
  O  O173  1  0.28310000  0.17170000  0.28310000  1.0
  O  O174  1  0.21860000  0.11230000  0.21860000  1.0
  O  O175  1  0.56820000  0.05390000  0.43180000  1.0
  O  O176  1  0.71690000  0.82830000  0.28310000  1.0
  O  O177  1  0.78140000  0.88770000  0.21860000  1.0
  O  O178  1  0.56820000  0.56820000  0.94610000  1.0
  O  O179  1  0.71690000  0.71690000  0.17170000  1.0
  O  O180  1  0.78140000  0.78140000  0.11230000  1.0
  O  O181  1  0.56820000  0.43180000  0.05390000  1.0
  O  O182  1  0.71690000  0.28310000  0.82830000  1.0
  O  O183  1  0.78140000  0.21860000  0.88770000  1.0
  O  O184  1  0.43180000  0.43180000  0.94610000  1.0
  O  O185  1  0.28310000  0.28310000  0.17170000  1.0
  O  O186  1  0.21860000  0.21860000  0.11230000  1.0
  O  O187  1  0.43180000  0.56820000  0.05390000  1.0
  O  O188  1  0.28310000  0.71690000  0.82830000  1.0
  O  O189  1  0.21860000  0.78140000  0.88770000  1.0
  O  O190  1  0.94610000  0.56820000  0.56820000  1.0
  O  O191  1  0.17170000  0.71690000  0.71690000  1.0
  O  O192  1  0.11230000  0.78140000  0.78140000  1.0
  O  O193  1  0.05390000  0.56820000  0.43180000  1.0
  O  O194  1  0.82830000  0.71690000  0.28310000  1.0
  O  O195  1  0.88770000  0.78140000  0.21860000  1.0
  O  O196  1  0.94610000  0.43180000  0.43180000  1.0
  O  O197  1  0.17170000  0.28310000  0.28310000  1.0
  O  O198  1  0.11230000  0.21860000  0.21860000  1.0
  O  O199  1  0.05390000  0.43180000  0.56820000  1.0
  O  O200  1  0.82830000  0.28310000  0.71690000  1.0
  O  O201  1  0.88770000  0.21860000  0.78140000  1.0
  O  O202  1  0.94610000  0.56820000  0.43180000  1.0
  O  O203  1  0.17170000  0.71690000  0.28310000  1.0
  O  O204  1  0.11230000  0.78140000  0.21860000  1.0
  O  O205  1  0.05390000  0.43180000  0.43180000  1.0
  O  O206  1  0.82830000  0.28310000  0.28310000  1.0
  O  O207  1  0.88770000  0.21860000  0.21860000  1.0
  O  O208  1  0.94610000  0.43180000  0.56820000  1.0
  O  O209  1  0.17170000  0.28310000  0.71690000  1.0
  O  O210  1  0.11230000  0.21860000  0.78140000  1.0
  O  O211  1  0.05390000  0.56820000  0.56820000  1.0
  O  O212  1  0.82830000  0.71690000  0.71690000  1.0
  O  O213  1  0.88770000  0.78140000  0.78140000  1.0
  O  O214  1  0.56820000  0.56820000  0.05390000  1.0
  O  O215  1  0.71690000  0.71690000  0.82830000  1.0
  O  O216  1  0.78140000  0.78140000  0.88770000  1.0
  O  O217  1  0.43180000  0.56820000  0.94610000  1.0
  O  O218  1  0.28310000  0.71690000  0.17170000  1.0
  O  O219  1  0.21860000  0.78140000  0.11230000  1.0
  O  O220  1  0.43180000  0.43180000  0.05390000  1.0
  O  O221  1  0.28310000  0.28310000  0.82830000  1.0
  O  O222  1  0.21860000  0.21860000  0.88770000  1.0
  O  O223  1  0.56820000  0.43180000  0.94610000  1.0
  O  O224  1  0.71690000  0.28310000  0.17170000  1.0
  O  O225  1  0.78140000  0.21860000  0.11230000  1.0
  O  O226  1  0.56820000  0.94610000  0.43180000  1.0
  O  O227  1  0.71690000  0.17170000  0.28310000  1.0
  O  O228  1  0.78140000  0.11230000  0.21860000  1.0
  O  O229  1  0.56820000  0.05390000  0.56820000  1.0
  O  O230  1  0.71690000  0.82830000  0.71690000  1.0
  O  O231  1  0.78140000  0.88770000  0.78140000  1.0
  O  O232  1  0.43180000  0.94610000  0.56820000  1.0
  O  O233  1  0.28310000  0.17170000  0.71690000  1.0
  O  O234  1  0.21860000  0.11230000  0.78140000  1.0
  O  O235  1  0.43180000  0.05390000  0.43180000  1.0
  O  O236  1  0.28310000  0.82830000  0.28310000  1.0
  O  O237  1  0.21860000  0.88770000  0.21860000  1.0
