# generated using pymatgen
data_ZnH6(C3N2)2
_symmetry_space_group_name_H-M   'P 1'
_cell_length_a   18.97010000
_cell_length_b   18.97010000
_cell_length_c   16.74000000
_cell_angle_alpha   90.00000000
_cell_angle_beta   90.00000000
_cell_angle_gamma   90.00000000
_symmetry_Int_Tables_number   1
_chemical_formula_structural   ZnH6(C3N2)2
_chemical_formula_sum   'Zn16 H96 C96 N64'
_cell_volume   6024.13497773
_cell_formula_units_Z   16
loop_
 _symmetry_equiv_pos_site_id
 _symmetry_equiv_pos_as_xyz
  1  'x, y, z'
loop_
 _atom_site_type_symbol
 _atom_site_label
 _atom_site_symmetry_multiplicity
 _atom_site_fract_x
 _atom_site_fract_y
 _atom_site_fract_z
 _atom_site_occupancy
  Zn  Zn0  1  0.60549000  0.17336000  0.17924000  1.0
  Zn  Zn1  1  0.39451000  0.82664000  0.17924000  1.0
  Zn  Zn2  1  0.32664000  0.10549000  0.67924000  1.0
  Zn  Zn3  1  0.67336000  0.89451000  0.67924000  1.0
  Zn  Zn4  1  0.89451000  0.67336000  0.32076000  1.0
  Zn  Zn5  1  0.10549000  0.32664000  0.32076000  1.0
  Zn  Zn6  1  0.17336000  0.60549000  0.82076000  1.0
  Zn  Zn7  1  0.82664000  0.39451000  0.82076000  1.0
  Zn  Zn8  1  0.39451000  0.82664000  0.82076000  1.0
  Zn  Zn9  1  0.60549000  0.17336000  0.82076000  1.0
  Zn  Zn10  1  0.67336000  0.89451000  0.32076000  1.0
  Zn  Zn11  1  0.32664000  0.10549000  0.32076000  1.0
  Zn  Zn12  1  0.10549000  0.32664000  0.67924000  1.0
  Zn  Zn13  1  0.89451000  0.67336000  0.67924000  1.0
  Zn  Zn14  1  0.82664000  0.39451000  0.17924000  1.0
  Zn  Zn15  1  0.17336000  0.60549000  0.17924000  1.0
  H  H16  1  0.60270000  0.30580000  0.30180000  1.0
  H  H17  1  0.60470000  0.01060000  0.21840000  1.0
  H  H18  1  0.71800000  0.15250000  0.32210000  1.0
  H  H19  1  0.71250000  0.08450000  0.07480000  1.0
  H  H20  1  0.75080000  0.03960000  0.37730000  1.0
  H  H21  1  0.39730000  0.69420000  0.30180000  1.0
  H  H22  1  0.39530000  0.98940000  0.21840000  1.0
  H  H23  1  0.28200000  0.84750000  0.32210000  1.0
  H  H24  1  0.28750000  0.91550000  0.07480000  1.0
  H  H25  1  0.24920000  0.96040000  0.37730000  1.0
  H  H26  1  0.19420000  0.10270000  0.80180000  1.0
  H  H27  1  0.48940000  0.10470000  0.71840000  1.0
  H  H28  1  0.34750000  0.21800000  0.82210000  1.0
  H  H29  1  0.41550000  0.21250000  0.57480000  1.0
  H  H30  1  0.46040000  0.25080000  0.87730000  1.0
  H  H31  1  0.80580000  0.89730000  0.80180000  1.0
  H  H32  1  0.51060000  0.89530000  0.71840000  1.0
  H  H33  1  0.65250000  0.78200000  0.82210000  1.0
  H  H34  1  0.58450000  0.78750000  0.57480000  1.0
  H  H35  1  0.53960000  0.74920000  0.87730000  1.0
  H  H36  1  0.89730000  0.80580000  0.19820000  1.0
  H  H37  1  0.89530000  0.51060000  0.28160000  1.0
  H  H38  1  0.78200000  0.65250000  0.17790000  1.0
  H  H39  1  0.78750000  0.58450000  0.42520000  1.0
  H  H40  1  0.74920000  0.53960000  0.12270000  1.0
  H  H41  1  0.10270000  0.19420000  0.19820000  1.0
  H  H42  1  0.10470000  0.48940000  0.28160000  1.0
  H  H43  1  0.21800000  0.34750000  0.17790000  1.0
  H  H44  1  0.21250000  0.41550000  0.42520000  1.0
  H  H45  1  0.25080000  0.46040000  0.12270000  1.0
  H  H46  1  0.30580000  0.60270000  0.69820000  1.0
  H  H47  1  0.01060000  0.60470000  0.78160000  1.0
  H  H48  1  0.15250000  0.71800000  0.67790000  1.0
  H  H49  1  0.08450000  0.71250000  0.92520000  1.0
  H  H50  1  0.03960000  0.75080000  0.62270000  1.0
  H  H51  1  0.69420000  0.39730000  0.69820000  1.0
  H  H52  1  0.98940000  0.39530000  0.78160000  1.0
  H  H53  1  0.84750000  0.28200000  0.67790000  1.0
  H  H54  1  0.91550000  0.28750000  0.92520000  1.0
  H  H55  1  0.96040000  0.24920000  0.62270000  1.0
  H  H56  1  0.39730000  0.69420000  0.69820000  1.0
  H  H57  1  0.39530000  0.98940000  0.78160000  1.0
  H  H58  1  0.28200000  0.84750000  0.67790000  1.0
  H  H59  1  0.28750000  0.91550000  0.92520000  1.0
  H  H60  1  0.24920000  0.96040000  0.62270000  1.0
  H  H61  1  0.60270000  0.30580000  0.69820000  1.0
  H  H62  1  0.60470000  0.01060000  0.78160000  1.0
  H  H63  1  0.71800000  0.15250000  0.67790000  1.0
  H  H64  1  0.71250000  0.08450000  0.92520000  1.0
  H  H65  1  0.75080000  0.03960000  0.62270000  1.0
  H  H66  1  0.80580000  0.89730000  0.19820000  1.0
  H  H67  1  0.51060000  0.89530000  0.28160000  1.0
  H  H68  1  0.65250000  0.78200000  0.17790000  1.0
  H  H69  1  0.58450000  0.78750000  0.42520000  1.0
  H  H70  1  0.53960000  0.74920000  0.12270000  1.0
  H  H71  1  0.19420000  0.10270000  0.19820000  1.0
  H  H72  1  0.48940000  0.10470000  0.28160000  1.0
  H  H73  1  0.34750000  0.21800000  0.17790000  1.0
  H  H74  1  0.41550000  0.21250000  0.42520000  1.0
  H  H75  1  0.46040000  0.25080000  0.12270000  1.0
  H  H76  1  0.10270000  0.19420000  0.80180000  1.0
  H  H77  1  0.10470000  0.48940000  0.71840000  1.0
  H  H78  1  0.21800000  0.34750000  0.82210000  1.0
  H  H79  1  0.21250000  0.41550000  0.57480000  1.0
  H  H80  1  0.25080000  0.46040000  0.87730000  1.0
  H  H81  1  0.89730000  0.80580000  0.80180000  1.0
  H  H82  1  0.89530000  0.51060000  0.71840000  1.0
  H  H83  1  0.78200000  0.65250000  0.82210000  1.0
  H  H84  1  0.78750000  0.58450000  0.57480000  1.0
  H  H85  1  0.74920000  0.53960000  0.87730000  1.0
  H  H86  1  0.69420000  0.39730000  0.30180000  1.0
  H  H87  1  0.98940000  0.39530000  0.21840000  1.0
  H  H88  1  0.84750000  0.28200000  0.32210000  1.0
  H  H89  1  0.91550000  0.28750000  0.07480000  1.0
  H  H90  1  0.96040000  0.24920000  0.37730000  1.0
  H  H91  1  0.30580000  0.60270000  0.30180000  1.0
  H  H92  1  0.01060000  0.60470000  0.21840000  1.0
  H  H93  1  0.15250000  0.71800000  0.32210000  1.0
  H  H94  1  0.08450000  0.71250000  0.07480000  1.0
  H  H95  1  0.03960000  0.75080000  0.37730000  1.0
  H  H96  1  0.73320000  0.26680000  0.13050000  1.0
  H  H97  1  0.26680000  0.73320000  0.13050000  1.0
  H  H98  1  0.23320000  0.23320000  0.63050000  1.0
  H  H99  1  0.76680000  0.76680000  0.63050000  1.0
  H  H100  1  0.76680000  0.76680000  0.36950000  1.0
  H  H101  1  0.23320000  0.23320000  0.36950000  1.0
  H  H102  1  0.26680000  0.73320000  0.86950000  1.0
  H  H103  1  0.73320000  0.26680000  0.86950000  1.0
  H  H104  1  0.55670000  0.19890000  0.00000000  1.0
  H  H105  1  0.44330000  0.80110000  0.00000000  1.0
  H  H106  1  0.30110000  0.05670000  0.50000000  1.0
  H  H107  1  0.69890000  0.94330000  0.50000000  1.0
  H  H108  1  0.94330000  0.69890000  0.50000000  1.0
  H  H109  1  0.05670000  0.30110000  0.50000000  1.0
  H  H110  1  0.19890000  0.55670000  0.00000000  1.0
  H  H111  1  0.80110000  0.44330000  0.00000000  1.0
  C  C112  1  0.63980000  0.30920000  0.26560000  1.0
  C  C113  1  0.63820000  0.03260000  0.25050000  1.0
  C  C114  1  0.69920000  0.10930000  0.30660000  1.0
  C  C115  1  0.68120000  0.10880000  0.04220000  1.0
  C  C116  1  0.71730000  0.04730000  0.33770000  1.0
  C  C117  1  0.36020000  0.69080000  0.26560000  1.0
  C  C118  1  0.36180000  0.96740000  0.25050000  1.0
  C  C119  1  0.30080000  0.89070000  0.30660000  1.0
  C  C120  1  0.31880000  0.89120000  0.04220000  1.0
  C  C121  1  0.28270000  0.95270000  0.33770000  1.0
  C  C122  1  0.19080000  0.13980000  0.76560000  1.0
  C  C123  1  0.46740000  0.13820000  0.75050000  1.0
  C  C124  1  0.39070000  0.19920000  0.80660000  1.0
  C  C125  1  0.39120000  0.18120000  0.54220000  1.0
  C  C126  1  0.45270000  0.21730000  0.83770000  1.0
  C  C127  1  0.80920000  0.86020000  0.76560000  1.0
  C  C128  1  0.53260000  0.86180000  0.75050000  1.0
  C  C129  1  0.60930000  0.80080000  0.80660000  1.0
  C  C130  1  0.60880000  0.81880000  0.54220000  1.0
  C  C131  1  0.54730000  0.78270000  0.83770000  1.0
  C  C132  1  0.86020000  0.80920000  0.23440000  1.0
  C  C133  1  0.86180000  0.53260000  0.24950000  1.0
  C  C134  1  0.80080000  0.60930000  0.19340000  1.0
  C  C135  1  0.81880000  0.60880000  0.45780000  1.0
  C  C136  1  0.78270000  0.54730000  0.16230000  1.0
  C  C137  1  0.13980000  0.19080000  0.23440000  1.0
  C  C138  1  0.13820000  0.46740000  0.24950000  1.0
  C  C139  1  0.19920000  0.39070000  0.19340000  1.0
  C  C140  1  0.18120000  0.39120000  0.45780000  1.0
  C  C141  1  0.21730000  0.45270000  0.16230000  1.0
  C  C142  1  0.30920000  0.63980000  0.73440000  1.0
  C  C143  1  0.03260000  0.63820000  0.74950000  1.0
  C  C144  1  0.10930000  0.69920000  0.69340000  1.0
  C  C145  1  0.10880000  0.68120000  0.95780000  1.0
  C  C146  1  0.04730000  0.71730000  0.66230000  1.0
  C  C147  1  0.69080000  0.36020000  0.73440000  1.0
  C  C148  1  0.96740000  0.36180000  0.74950000  1.0
  C  C149  1  0.89070000  0.30080000  0.69340000  1.0
  C  C150  1  0.89120000  0.31880000  0.95780000  1.0
  C  C151  1  0.95270000  0.28270000  0.66230000  1.0
  C  C152  1  0.36020000  0.69080000  0.73440000  1.0
  C  C153  1  0.36180000  0.96740000  0.74950000  1.0
  C  C154  1  0.30080000  0.89070000  0.69340000  1.0
  C  C155  1  0.31880000  0.89120000  0.95780000  1.0
  C  C156  1  0.28270000  0.95270000  0.66230000  1.0
  C  C157  1  0.63980000  0.30920000  0.73440000  1.0
  C  C158  1  0.63820000  0.03260000  0.74950000  1.0
  C  C159  1  0.69920000  0.10930000  0.69340000  1.0
  C  C160  1  0.68120000  0.10880000  0.95780000  1.0
  C  C161  1  0.71730000  0.04730000  0.66230000  1.0
  C  C162  1  0.80920000  0.86020000  0.23440000  1.0
  C  C163  1  0.53260000  0.86180000  0.24950000  1.0
  C  C164  1  0.60930000  0.80080000  0.19340000  1.0
  C  C165  1  0.60880000  0.81880000  0.45780000  1.0
  C  C166  1  0.54730000  0.78270000  0.16230000  1.0
  C  C167  1  0.19080000  0.13980000  0.23440000  1.0
  C  C168  1  0.46740000  0.13820000  0.24950000  1.0
  C  C169  1  0.39070000  0.19920000  0.19340000  1.0
  C  C170  1  0.39120000  0.18120000  0.45780000  1.0
  C  C171  1  0.45270000  0.21730000  0.16230000  1.0
  C  C172  1  0.13980000  0.19080000  0.76560000  1.0
  C  C173  1  0.13820000  0.46740000  0.75050000  1.0
  C  C174  1  0.19920000  0.39070000  0.80660000  1.0
  C  C175  1  0.18120000  0.39120000  0.54220000  1.0
  C  C176  1  0.21730000  0.45270000  0.83770000  1.0
  C  C177  1  0.86020000  0.80920000  0.76560000  1.0
  C  C178  1  0.86180000  0.53260000  0.75050000  1.0
  C  C179  1  0.80080000  0.60930000  0.80660000  1.0
  C  C180  1  0.81880000  0.60880000  0.54220000  1.0
  C  C181  1  0.78270000  0.54730000  0.83770000  1.0
  C  C182  1  0.69080000  0.36020000  0.26560000  1.0
  C  C183  1  0.96740000  0.36180000  0.25050000  1.0
  C  C184  1  0.89070000  0.30080000  0.30660000  1.0
  C  C185  1  0.89120000  0.31880000  0.04220000  1.0
  C  C186  1  0.95270000  0.28270000  0.33770000  1.0
  C  C187  1  0.30920000  0.63980000  0.26560000  1.0
  C  C188  1  0.03260000  0.63820000  0.25050000  1.0
  C  C189  1  0.10930000  0.69920000  0.30660000  1.0
  C  C190  1  0.10880000  0.68120000  0.04220000  1.0
  C  C191  1  0.04730000  0.71730000  0.33770000  1.0
  C  C192  1  0.71070000  0.28930000  0.17270000  1.0
  C  C193  1  0.28930000  0.71070000  0.17270000  1.0
  C  C194  1  0.21070000  0.21070000  0.67270000  1.0
  C  C195  1  0.78930000  0.78930000  0.67270000  1.0
  C  C196  1  0.78930000  0.78930000  0.32730000  1.0
  C  C197  1  0.21070000  0.21070000  0.32730000  1.0
  C  C198  1  0.28930000  0.71070000  0.82730000  1.0
  C  C199  1  0.71070000  0.28930000  0.82730000  1.0
  C  C200  1  0.59710000  0.17110000  0.00000000  1.0
  C  C201  1  0.40290000  0.82890000  0.00000000  1.0
  C  C202  1  0.32890000  0.09710000  0.50000000  1.0
  C  C203  1  0.67110000  0.90290000  0.50000000  1.0
  C  C204  1  0.90290000  0.67110000  0.50000000  1.0
  C  C205  1  0.09710000  0.32890000  0.50000000  1.0
  C  C206  1  0.17110000  0.59710000  0.00000000  1.0
  C  C207  1  0.82890000  0.40290000  0.00000000  1.0
  N  N208  1  0.65220000  0.26460000  0.20440000  1.0
  N  N209  1  0.64920000  0.10060000  0.24880000  1.0
  N  N210  1  0.62800000  0.14990000  0.06710000  1.0
  N  N211  1  0.67790000  0.99790000  0.30080000  1.0
  N  N212  1  0.34780000  0.73540000  0.20440000  1.0
  N  N213  1  0.35080000  0.89940000  0.24880000  1.0
  N  N214  1  0.37200000  0.85010000  0.06710000  1.0
  N  N215  1  0.32210000  0.00210000  0.30080000  1.0
  N  N216  1  0.23540000  0.15220000  0.70440000  1.0
  N  N217  1  0.39940000  0.14920000  0.74880000  1.0
  N  N218  1  0.35010000  0.12800000  0.56710000  1.0
  N  N219  1  0.50210000  0.17790000  0.80080000  1.0
  N  N220  1  0.76460000  0.84780000  0.70440000  1.0
  N  N221  1  0.60060000  0.85080000  0.74880000  1.0
  N  N222  1  0.64990000  0.87200000  0.56710000  1.0
  N  N223  1  0.49790000  0.82210000  0.80080000  1.0
  N  N224  1  0.84780000  0.76460000  0.29560000  1.0
  N  N225  1  0.85080000  0.60060000  0.25120000  1.0
  N  N226  1  0.87200000  0.64990000  0.43290000  1.0
  N  N227  1  0.82210000  0.49790000  0.19920000  1.0
  N  N228  1  0.15220000  0.23540000  0.29560000  1.0
  N  N229  1  0.14920000  0.39940000  0.25120000  1.0
  N  N230  1  0.12800000  0.35010000  0.43290000  1.0
  N  N231  1  0.17790000  0.50210000  0.19920000  1.0
  N  N232  1  0.26460000  0.65220000  0.79560000  1.0
  N  N233  1  0.10060000  0.64920000  0.75120000  1.0
  N  N234  1  0.14990000  0.62800000  0.93290000  1.0
  N  N235  1  0.99790000  0.67790000  0.69920000  1.0
  N  N236  1  0.73540000  0.34780000  0.79560000  1.0
  N  N237  1  0.89940000  0.35080000  0.75120000  1.0
  N  N238  1  0.85010000  0.37200000  0.93290000  1.0
  N  N239  1  0.00210000  0.32210000  0.69920000  1.0
  N  N240  1  0.34780000  0.73540000  0.79560000  1.0
  N  N241  1  0.35080000  0.89940000  0.75120000  1.0
  N  N242  1  0.37200000  0.85010000  0.93290000  1.0
  N  N243  1  0.32210000  0.00210000  0.69920000  1.0
  N  N244  1  0.65220000  0.26460000  0.79560000  1.0
  N  N245  1  0.64920000  0.10060000  0.75120000  1.0
  N  N246  1  0.62800000  0.14990000  0.93290000  1.0
  N  N247  1  0.67790000  0.99790000  0.69920000  1.0
  N  N248  1  0.76460000  0.84780000  0.29560000  1.0
  N  N249  1  0.60060000  0.85080000  0.25120000  1.0
  N  N250  1  0.64990000  0.87200000  0.43290000  1.0
  N  N251  1  0.49790000  0.82210000  0.19920000  1.0
  N  N252  1  0.23540000  0.15220000  0.29560000  1.0
  N  N253  1  0.39940000  0.14920000  0.25120000  1.0
  N  N254  1  0.35010000  0.12800000  0.43290000  1.0
  N  N255  1  0.50210000  0.17790000  0.19920000  1.0
  N  N256  1  0.15220000  0.23540000  0.70440000  1.0
  N  N257  1  0.14920000  0.39940000  0.74880000  1.0
  N  N258  1  0.12800000  0.35010000  0.56710000  1.0
  N  N259  1  0.17790000  0.50210000  0.80080000  1.0
  N  N260  1  0.84780000  0.76460000  0.70440000  1.0
  N  N261  1  0.85080000  0.60060000  0.74880000  1.0
  N  N262  1  0.87200000  0.64990000  0.56710000  1.0
  N  N263  1  0.82210000  0.49790000  0.80080000  1.0
  N  N264  1  0.73540000  0.34780000  0.20440000  1.0
  N  N265  1  0.89940000  0.35080000  0.24880000  1.0
  N  N266  1  0.85010000  0.37200000  0.06710000  1.0
  N  N267  1  0.00210000  0.32210000  0.30080000  1.0
  N  N268  1  0.26460000  0.65220000  0.20440000  1.0
  N  N269  1  0.10060000  0.64920000  0.24880000  1.0
  N  N270  1  0.14990000  0.62800000  0.06710000  1.0
  N  N271  1  0.99790000  0.67790000  0.30080000  1.0
