# generated using pymatgen
data_U3HC5O8
_symmetry_space_group_name_H-M   'P 1'
_cell_length_a   12.64700000
_cell_length_b   13.28400000
_cell_length_c   24.92600000
_cell_angle_alpha   90.00000000
_cell_angle_beta   90.00000000
_cell_angle_gamma   90.00000000
_symmetry_Int_Tables_number   1
_chemical_formula_structural   U3HC5O8
_chemical_formula_sum   'U24 H8 C40 O64'
_cell_volume   4187.63649665
_cell_formula_units_Z   8
loop_
 _symmetry_equiv_pos_site_id
 _symmetry_equiv_pos_as_xyz
  1  'x, y, z'
loop_
 _atom_site_type_symbol
 _atom_site_label
 _atom_site_symmetry_multiplicity
 _atom_site_fract_x
 _atom_site_fract_y
 _atom_site_fract_z
 _atom_site_occupancy
  U  U0  1  0.61111000  0.21192000  0.80253000  1.0
  U  U1  1  0.76106000  0.30727000  0.67798000  1.0
  U  U2  1  0.90564000  0.17151000  0.79409000  1.0
  U  U3  1  0.38889000  0.78808000  0.80253000  1.0
  U  U4  1  0.23894000  0.69273000  0.67798000  1.0
  U  U5  1  0.09436000  0.82849000  0.79409000  1.0
  U  U6  1  0.88889000  0.71192000  0.69747000  1.0
  U  U7  1  0.73894000  0.80727000  0.82202000  1.0
  U  U8  1  0.59436000  0.67151000  0.70591000  1.0
  U  U9  1  0.11111000  0.28808000  0.69747000  1.0
  U  U10  1  0.26106000  0.19273000  0.82202000  1.0
  U  U11  1  0.40564000  0.32849000  0.70591000  1.0
  U  U12  1  0.38889000  0.78808000  0.19747000  1.0
  U  U13  1  0.23894000  0.69273000  0.32202000  1.0
  U  U14  1  0.09436000  0.82849000  0.20591000  1.0
  U  U15  1  0.61111000  0.21192000  0.19747000  1.0
  U  U16  1  0.76106000  0.30727000  0.32202000  1.0
  U  U17  1  0.90564000  0.17151000  0.20591000  1.0
  U  U18  1  0.11111000  0.28808000  0.30253000  1.0
  U  U19  1  0.26106000  0.19273000  0.17798000  1.0
  U  U20  1  0.40564000  0.32849000  0.29409000  1.0
  U  U21  1  0.88889000  0.71192000  0.30253000  1.0
  U  U22  1  0.73894000  0.80727000  0.17798000  1.0
  U  U23  1  0.59436000  0.67151000  0.29409000  1.0
  H  H24  1  0.62160000  0.36890000  0.50000000  1.0
  H  H25  1  0.91380000  0.34710000  0.50000000  1.0
  H  H26  1  0.37840000  0.63110000  0.50000000  1.0
  H  H27  1  0.08620000  0.65290000  0.50000000  1.0
  H  H28  1  0.87840000  0.86890000  0.00000000  1.0
  H  H29  1  0.58620000  0.84710000  0.00000000  1.0
  H  H30  1  0.12160000  0.13110000  0.00000000  1.0
  H  H31  1  0.41380000  0.15290000  0.00000000  1.0
  C  C32  1  0.56310000  0.41420000  0.60020000  1.0
  C  C33  1  0.53570000  0.46070000  0.54780000  1.0
  C  C34  1  0.95720000  0.39320000  0.59900000  1.0
  C  C35  1  0.97400000  0.45310000  0.54880000  1.0
  C  C36  1  0.43690000  0.58580000  0.60020000  1.0
  C  C37  1  0.46430000  0.53930000  0.54780000  1.0
  C  C38  1  0.04280000  0.60680000  0.59900000  1.0
  C  C39  1  0.02600000  0.54690000  0.54880000  1.0
  C  C40  1  0.93690000  0.91420000  0.89980000  1.0
  C  C41  1  0.96430000  0.96070000  0.95220000  1.0
  C  C42  1  0.54280000  0.89320000  0.90100000  1.0
  C  C43  1  0.52600000  0.95310000  0.95120000  1.0
  C  C44  1  0.06310000  0.08580000  0.89980000  1.0
  C  C45  1  0.03570000  0.03930000  0.95220000  1.0
  C  C46  1  0.45720000  0.10680000  0.90100000  1.0
  C  C47  1  0.47400000  0.04690000  0.95120000  1.0
  C  C48  1  0.43690000  0.58580000  0.39980000  1.0
  C  C49  1  0.46430000  0.53930000  0.45220000  1.0
  C  C50  1  0.04280000  0.60680000  0.40100000  1.0
  C  C51  1  0.02600000  0.54690000  0.45120000  1.0
  C  C52  1  0.56310000  0.41420000  0.39980000  1.0
  C  C53  1  0.53570000  0.46070000  0.45220000  1.0
  C  C54  1  0.95720000  0.39320000  0.40100000  1.0
  C  C55  1  0.97400000  0.45310000  0.45120000  1.0
  C  C56  1  0.06310000  0.08580000  0.10020000  1.0
  C  C57  1  0.03570000  0.03930000  0.04780000  1.0
  C  C58  1  0.45720000  0.10680000  0.09900000  1.0
  C  C59  1  0.47400000  0.04690000  0.04880000  1.0
  C  C60  1  0.93690000  0.91420000  0.10020000  1.0
  C  C61  1  0.96430000  0.96070000  0.04780000  1.0
  C  C62  1  0.54280000  0.89320000  0.09900000  1.0
  C  C63  1  0.52600000  0.95310000  0.04880000  1.0
  C  C64  1  0.57300000  0.42100000  0.50000000  1.0
  C  C65  1  0.94900000  0.40900000  0.50000000  1.0
  C  C66  1  0.42700000  0.57900000  0.50000000  1.0
  C  C67  1  0.05100000  0.59100000  0.50000000  1.0
  C  C68  1  0.92700000  0.92100000  0.00000000  1.0
  C  C69  1  0.55100000  0.90900000  0.00000000  1.0
  C  C70  1  0.07300000  0.07900000  0.00000000  1.0
  C  C71  1  0.44900000  0.09100000  0.00000000  1.0
  O  O72  1  0.59250000  0.33580000  0.72720000  1.0
  O  O73  1  0.75650000  0.12790000  0.84720000  1.0
  O  O74  1  0.93310000  0.22830000  0.70050000  1.0
  O  O75  1  0.75820000  0.23710000  0.75690000  1.0
  O  O76  1  0.65810000  0.39650000  0.61200000  1.0
  O  O77  1  0.48480000  0.39350000  0.62990000  1.0
  O  O78  1  0.87380000  0.34180000  0.60300000  1.0
  O  O79  1  0.03260000  0.39130000  0.63080000  1.0
  O  O80  1  0.40750000  0.66420000  0.72720000  1.0
  O  O81  1  0.24350000  0.87210000  0.84720000  1.0
  O  O82  1  0.06690000  0.77170000  0.70050000  1.0
  O  O83  1  0.24180000  0.76290000  0.75690000  1.0
  O  O84  1  0.34190000  0.60350000  0.61200000  1.0
  O  O85  1  0.51520000  0.60650000  0.62990000  1.0
  O  O86  1  0.12620000  0.65820000  0.60300000  1.0
  O  O87  1  0.96740000  0.60870000  0.63080000  1.0
  O  O88  1  0.90750000  0.83580000  0.77280000  1.0
  O  O89  1  0.74350000  0.62790000  0.65280000  1.0
  O  O90  1  0.56690000  0.72830000  0.79950000  1.0
  O  O91  1  0.74180000  0.73710000  0.74310000  1.0
  O  O92  1  0.84190000  0.89650000  0.88800000  1.0
  O  O93  1  0.01520000  0.89350000  0.87010000  1.0
  O  O94  1  0.62620000  0.84180000  0.89700000  1.0
  O  O95  1  0.46740000  0.89130000  0.86920000  1.0
  O  O96  1  0.09250000  0.16420000  0.77280000  1.0
  O  O97  1  0.25650000  0.37210000  0.65280000  1.0
  O  O98  1  0.43310000  0.27170000  0.79950000  1.0
  O  O99  1  0.25820000  0.26290000  0.74310000  1.0
  O  O100  1  0.15810000  0.10350000  0.88800000  1.0
  O  O101  1  0.98480000  0.10650000  0.87010000  1.0
  O  O102  1  0.37380000  0.15820000  0.89700000  1.0
  O  O103  1  0.53260000  0.10870000  0.86920000  1.0
  O  O104  1  0.40750000  0.66420000  0.27280000  1.0
  O  O105  1  0.24350000  0.87210000  0.15280000  1.0
  O  O106  1  0.06690000  0.77170000  0.29950000  1.0
  O  O107  1  0.24180000  0.76290000  0.24310000  1.0
  O  O108  1  0.34190000  0.60350000  0.38800000  1.0
  O  O109  1  0.51520000  0.60650000  0.37010000  1.0
  O  O110  1  0.12620000  0.65820000  0.39700000  1.0
  O  O111  1  0.96740000  0.60870000  0.36920000  1.0
  O  O112  1  0.59250000  0.33580000  0.27280000  1.0
  O  O113  1  0.75650000  0.12790000  0.15280000  1.0
  O  O114  1  0.93310000  0.22830000  0.29950000  1.0
  O  O115  1  0.75820000  0.23710000  0.24310000  1.0
  O  O116  1  0.65810000  0.39650000  0.38800000  1.0
  O  O117  1  0.48480000  0.39350000  0.37010000  1.0
  O  O118  1  0.87380000  0.34180000  0.39700000  1.0
  O  O119  1  0.03260000  0.39130000  0.36920000  1.0
  O  O120  1  0.09250000  0.16420000  0.22720000  1.0
  O  O121  1  0.25650000  0.37210000  0.34720000  1.0
  O  O122  1  0.43310000  0.27170000  0.20050000  1.0
  O  O123  1  0.25820000  0.26290000  0.25690000  1.0
  O  O124  1  0.15810000  0.10350000  0.11200000  1.0
  O  O125  1  0.98480000  0.10650000  0.12990000  1.0
  O  O126  1  0.37380000  0.15820000  0.10300000  1.0
  O  O127  1  0.53260000  0.10870000  0.13080000  1.0
  O  O128  1  0.90750000  0.83580000  0.22720000  1.0
  O  O129  1  0.74350000  0.62790000  0.34720000  1.0
  O  O130  1  0.56690000  0.72830000  0.20050000  1.0
  O  O131  1  0.74180000  0.73710000  0.25690000  1.0
  O  O132  1  0.84190000  0.89650000  0.11200000  1.0
  O  O133  1  0.01520000  0.89350000  0.12990000  1.0
  O  O134  1  0.62620000  0.84180000  0.10300000  1.0
  O  O135  1  0.46740000  0.89130000  0.13080000  1.0
