# generated using pymatgen
data_Dy2H24(C14O5)3
_symmetry_space_group_name_H-M   'P 1'
_cell_length_a   15.97000000
_cell_length_b   28.16600000
_cell_length_c   23.58300000
_cell_angle_alpha   90.00000000
_cell_angle_beta   108.09200000
_cell_angle_gamma   90.00000000
_symmetry_Int_Tables_number   1
_chemical_formula_structural   Dy2H24(C14O5)3
_chemical_formula_sum   'Dy16 H192 C336 O120'
_cell_volume   10083.42950391
_cell_formula_units_Z   8
loop_
 _symmetry_equiv_pos_site_id
 _symmetry_equiv_pos_as_xyz
  1  'x, y, z'
loop_
 _atom_site_type_symbol
 _atom_site_label
 _atom_site_symmetry_multiplicity
 _atom_site_fract_x
 _atom_site_fract_y
 _atom_site_fract_z
 _atom_site_occupancy
  Dy  Dy0  1  0.22134000  0.10491000  0.79003000  1.0
  Dy  Dy1  1  0.44000000  0.14055000  0.78160000  1.0
  Dy  Dy2  1  0.60670000  0.14227000  0.69583000  1.0
  Dy  Dy3  1  0.91402000  0.13029000  0.70754000  1.0
  Dy  Dy4  1  0.27866000  0.60491000  0.70997000  1.0
  Dy  Dy5  1  0.06000000  0.64055000  0.71840000  1.0
  Dy  Dy6  1  0.89330000  0.64227000  0.80417000  1.0
  Dy  Dy7  1  0.58598000  0.63029000  0.79246000  1.0
  Dy  Dy8  1  0.77866000  0.89509000  0.20997000  1.0
  Dy  Dy9  1  0.56000000  0.85945000  0.21840000  1.0
  Dy  Dy10  1  0.39330000  0.85773000  0.30417000  1.0
  Dy  Dy11  1  0.08598000  0.86971000  0.29246000  1.0
  Dy  Dy12  1  0.72134000  0.39509000  0.29003000  1.0
  Dy  Dy13  1  0.94000000  0.35945000  0.28160000  1.0
  Dy  Dy14  1  0.10670000  0.35773000  0.19583000  1.0
  Dy  Dy15  1  0.41402000  0.36971000  0.20754000  1.0
  H  H16  1  0.36880000  0.94020000  0.79860000  1.0
  H  H17  1  0.38460000  0.03180000  0.67460000  1.0
  H  H18  1  0.41810000  0.88070000  0.75000000  1.0
  H  H19  1  0.42920000  0.97210000  0.62360000  1.0
  H  H20  1  0.30520000  0.83930000  0.63960000  1.0
  H  H21  1  0.56460000  0.82150000  0.67860000  1.0
  H  H22  1  0.29120000  0.76050000  0.65860000  1.0
  H  H23  1  0.54840000  0.74230000  0.69670000  1.0
  H  H24  1  0.31450000  0.29790000  0.73420000  1.0
  H  H25  1  0.12540000  0.19950000  0.67780000  1.0
  H  H26  1  0.21110000  0.35770000  0.69230000  1.0
  H  H27  1  0.02490000  0.25810000  0.63410000  1.0
  H  H28  1  0.92650000  0.40410000  0.59860000  1.0
  H  H29  1  0.07930000  0.31280000  0.54420000  1.0
  H  H30  1  0.84400000  0.41560000  0.50090000  1.0
  H  H31  1  0.99980000  0.32840000  0.44620000  1.0
  H  H32  1  0.25430000  0.13820000  0.63560000  1.0
  H  H33  1  0.37010000  0.07040000  0.53250000  1.0
  H  H34  1  0.11720000  0.12520000  0.56570000  1.0
  H  H35  1  0.23450000  0.05560000  0.46330000  1.0
  H  H36  1  0.96020000  0.08170000  0.37070000  1.0
  H  H37  1  0.12620000  0.99700000  0.48980000  1.0
  H  H38  1  0.89110000  0.01580000  0.31860000  1.0
  H  H39  1  0.06250000  0.93150000  0.43120000  1.0
  H  H40  1  0.62540000  0.26690000  0.63050000  1.0
  H  H41  1  0.88410000  0.29180000  0.69530000  1.0
  H  H42  1  0.60080000  0.34530000  0.60410000  1.0
  H  H43  1  0.85940000  0.37110000  0.67470000  1.0
  H  H44  1  0.74850000  0.47200000  0.55520000  1.0
  H  H45  1  0.78640000  0.44050000  0.72600000  1.0
  H  H46  1  0.83970000  0.53740000  0.58310000  1.0
  H  H47  1  0.87610000  0.50640000  0.75470000  1.0
  H  H48  1  0.59580000  0.00610000  0.63070000  1.0
  H  H49  1  0.85740000  0.98910000  0.67470000  1.0
  H  H50  1  0.57790000  0.92580000  0.61470000  1.0
  H  H51  1  0.83980000  0.90820000  0.66490000  1.0
  H  H52  1  0.76410000  0.82860000  0.72700000  1.0
  H  H53  1  0.76360000  0.81870000  0.55950000  1.0
  H  H54  1  0.85590000  0.76200000  0.75130000  1.0
  H  H55  1  0.85680000  0.75410000  0.58420000  1.0
  H  H56  1  0.72240000  0.14150000  0.89580000  1.0
  H  H57  1  0.95540000  0.10390000  0.87720000  1.0
  H  H58  1  0.01050000  0.09420000  0.98150000  1.0
  H  H59  1  0.78390000  0.13200000  0.99950000  1.0
  H  H60  1  0.84340000  0.03740000  0.03370000  1.0
  H  H61  1  0.04830000  0.09310000  0.15950000  1.0
  H  H62  1  0.06460000  0.02340000  0.21270000  1.0
  H  H63  1  0.84900000  0.97210000  0.09380000  1.0
  H  H64  1  0.13120000  0.44020000  0.70140000  1.0
  H  H65  1  0.11540000  0.53180000  0.82540000  1.0
  H  H66  1  0.08190000  0.38070000  0.75000000  1.0
  H  H67  1  0.07080000  0.47210000  0.87640000  1.0
  H  H68  1  0.19480000  0.33930000  0.86040000  1.0
  H  H69  1  0.93540000  0.32150000  0.82140000  1.0
  H  H70  1  0.20880000  0.26050000  0.84140000  1.0
  H  H71  1  0.95160000  0.24230000  0.80330000  1.0
  H  H72  1  0.18550000  0.79790000  0.76580000  1.0
  H  H73  1  0.37460000  0.69950000  0.82220000  1.0
  H  H74  1  0.28890000  0.85770000  0.80770000  1.0
  H  H75  1  0.47510000  0.75810000  0.86590000  1.0
  H  H76  1  0.57350000  0.90410000  0.90140000  1.0
  H  H77  1  0.42070000  0.81280000  0.95580000  1.0
  H  H78  1  0.65600000  0.91560000  0.99910000  1.0
  H  H79  1  0.50020000  0.82840000  0.05380000  1.0
  H  H80  1  0.24570000  0.63820000  0.86440000  1.0
  H  H81  1  0.12990000  0.57040000  0.96750000  1.0
  H  H82  1  0.38280000  0.62520000  0.93430000  1.0
  H  H83  1  0.26550000  0.55560000  0.03670000  1.0
  H  H84  1  0.53980000  0.58170000  0.12930000  1.0
  H  H85  1  0.37380000  0.49700000  0.01020000  1.0
  H  H86  1  0.60890000  0.51580000  0.18140000  1.0
  H  H87  1  0.43750000  0.43150000  0.06880000  1.0
  H  H88  1  0.87460000  0.76690000  0.86950000  1.0
  H  H89  1  0.61590000  0.79180000  0.80470000  1.0
  H  H90  1  0.89920000  0.84530000  0.89590000  1.0
  H  H91  1  0.64060000  0.87110000  0.82530000  1.0
  H  H92  1  0.75150000  0.97200000  0.94480000  1.0
  H  H93  1  0.71360000  0.94050000  0.77400000  1.0
  H  H94  1  0.66030000  0.03740000  0.91690000  1.0
  H  H95  1  0.62390000  0.00640000  0.74530000  1.0
  H  H96  1  0.90420000  0.50610000  0.86930000  1.0
  H  H97  1  0.64260000  0.48910000  0.82530000  1.0
  H  H98  1  0.92210000  0.42580000  0.88530000  1.0
  H  H99  1  0.66020000  0.40820000  0.83510000  1.0
  H  H100  1  0.73590000  0.32860000  0.77300000  1.0
  H  H101  1  0.73640000  0.31870000  0.94050000  1.0
  H  H102  1  0.64410000  0.26200000  0.74870000  1.0
  H  H103  1  0.64320000  0.25410000  0.91580000  1.0
  H  H104  1  0.77760000  0.64150000  0.60420000  1.0
  H  H105  1  0.54460000  0.60390000  0.62280000  1.0
  H  H106  1  0.48950000  0.59420000  0.51850000  1.0
  H  H107  1  0.71610000  0.63200000  0.50050000  1.0
  H  H108  1  0.65660000  0.53740000  0.46630000  1.0
  H  H109  1  0.45170000  0.59310000  0.34050000  1.0
  H  H110  1  0.43540000  0.52340000  0.28730000  1.0
  H  H111  1  0.65100000  0.47210000  0.40620000  1.0
  H  H112  1  0.63120000  0.05980000  0.20140000  1.0
  H  H113  1  0.61540000  0.96820000  0.32540000  1.0
  H  H114  1  0.58190000  0.11930000  0.25000000  1.0
  H  H115  1  0.57080000  0.02790000  0.37640000  1.0
  H  H116  1  0.69480000  0.16070000  0.36040000  1.0
  H  H117  1  0.43540000  0.17850000  0.32140000  1.0
  H  H118  1  0.70880000  0.23950000  0.34140000  1.0
  H  H119  1  0.45160000  0.25770000  0.30330000  1.0
  H  H120  1  0.68550000  0.70210000  0.26580000  1.0
  H  H121  1  0.87460000  0.80050000  0.32220000  1.0
  H  H122  1  0.78890000  0.64230000  0.30770000  1.0
  H  H123  1  0.97510000  0.74190000  0.36590000  1.0
  H  H124  1  0.07350000  0.59590000  0.40140000  1.0
  H  H125  1  0.92070000  0.68720000  0.45580000  1.0
  H  H126  1  0.15600000  0.58440000  0.49910000  1.0
  H  H127  1  0.00020000  0.67160000  0.55380000  1.0
  H  H128  1  0.74570000  0.86180000  0.36440000  1.0
  H  H129  1  0.62990000  0.92960000  0.46750000  1.0
  H  H130  1  0.88280000  0.87480000  0.43430000  1.0
  H  H131  1  0.76550000  0.94440000  0.53670000  1.0
  H  H132  1  0.03980000  0.91830000  0.62930000  1.0
  H  H133  1  0.87380000  0.00300000  0.51020000  1.0
  H  H134  1  0.10890000  0.98420000  0.68140000  1.0
  H  H135  1  0.93750000  0.06850000  0.56880000  1.0
  H  H136  1  0.37460000  0.73310000  0.36950000  1.0
  H  H137  1  0.11590000  0.70820000  0.30470000  1.0
  H  H138  1  0.39920000  0.65470000  0.39590000  1.0
  H  H139  1  0.14060000  0.62890000  0.32530000  1.0
  H  H140  1  0.25150000  0.52800000  0.44480000  1.0
  H  H141  1  0.21360000  0.55950000  0.27400000  1.0
  H  H142  1  0.16030000  0.46260000  0.41690000  1.0
  H  H143  1  0.12390000  0.49360000  0.24530000  1.0
  H  H144  1  0.40420000  0.99390000  0.36930000  1.0
  H  H145  1  0.14260000  0.01090000  0.32530000  1.0
  H  H146  1  0.42210000  0.07420000  0.38530000  1.0
  H  H147  1  0.16020000  0.09180000  0.33510000  1.0
  H  H148  1  0.23590000  0.17140000  0.27300000  1.0
  H  H149  1  0.23640000  0.18130000  0.44050000  1.0
  H  H150  1  0.14410000  0.23800000  0.24870000  1.0
  H  H151  1  0.14320000  0.24590000  0.41580000  1.0
  H  H152  1  0.27760000  0.85850000  0.10420000  1.0
  H  H153  1  0.04460000  0.89610000  0.12280000  1.0
  H  H154  1  0.98950000  0.90580000  0.01850000  1.0
  H  H155  1  0.21610000  0.86800000  0.00050000  1.0
  H  H156  1  0.15660000  0.96260000  0.96630000  1.0
  H  H157  1  0.95170000  0.90690000  0.84050000  1.0
  H  H158  1  0.93540000  0.97660000  0.78730000  1.0
  H  H159  1  0.15100000  0.02790000  0.90620000  1.0
  H  H160  1  0.86880000  0.55980000  0.29860000  1.0
  H  H161  1  0.88460000  0.46820000  0.17460000  1.0
  H  H162  1  0.91810000  0.61930000  0.25000000  1.0
  H  H163  1  0.92920000  0.52790000  0.12360000  1.0
  H  H164  1  0.80520000  0.66070000  0.13960000  1.0
  H  H165  1  0.06460000  0.67850000  0.17860000  1.0
  H  H166  1  0.79120000  0.73950000  0.15860000  1.0
  H  H167  1  0.04840000  0.75770000  0.19670000  1.0
  H  H168  1  0.81450000  0.20210000  0.23420000  1.0
  H  H169  1  0.62540000  0.30050000  0.17780000  1.0
  H  H170  1  0.71110000  0.14230000  0.19230000  1.0
  H  H171  1  0.52490000  0.24190000  0.13410000  1.0
  H  H172  1  0.42650000  0.09590000  0.09860000  1.0
  H  H173  1  0.57930000  0.18720000  0.04420000  1.0
  H  H174  1  0.34400000  0.08440000  0.00090000  1.0
  H  H175  1  0.49980000  0.17160000  0.94620000  1.0
  H  H176  1  0.75430000  0.36180000  0.13560000  1.0
  H  H177  1  0.87010000  0.42960000  0.03250000  1.0
  H  H178  1  0.61720000  0.37480000  0.06570000  1.0
  H  H179  1  0.73450000  0.44440000  0.96330000  1.0
  H  H180  1  0.46020000  0.41830000  0.87070000  1.0
  H  H181  1  0.62620000  0.50300000  0.98980000  1.0
  H  H182  1  0.39110000  0.48420000  0.81860000  1.0
  H  H183  1  0.56250000  0.56850000  0.93120000  1.0
  H  H184  1  0.12540000  0.23310000  0.13050000  1.0
  H  H185  1  0.38410000  0.20820000  0.19530000  1.0
  H  H186  1  0.10080000  0.15470000  0.10410000  1.0
  H  H187  1  0.35940000  0.12890000  0.17470000  1.0
  H  H188  1  0.24850000  0.02800000  0.05520000  1.0
  H  H189  1  0.28640000  0.05950000  0.22600000  1.0
  H  H190  1  0.33970000  0.96260000  0.08310000  1.0
  H  H191  1  0.37610000  0.99360000  0.25470000  1.0
  H  H192  1  0.09580000  0.49390000  0.13070000  1.0
  H  H193  1  0.35740000  0.51090000  0.17470000  1.0
  H  H194  1  0.07790000  0.57420000  0.11470000  1.0
  H  H195  1  0.33980000  0.59180000  0.16490000  1.0
  H  H196  1  0.26410000  0.67140000  0.22700000  1.0
  H  H197  1  0.26360000  0.68130000  0.05950000  1.0
  H  H198  1  0.35590000  0.73800000  0.25130000  1.0
  H  H199  1  0.35680000  0.74590000  0.08420000  1.0
  H  H200  1  0.22240000  0.35850000  0.39580000  1.0
  H  H201  1  0.45540000  0.39610000  0.37720000  1.0
  H  H202  1  0.51050000  0.40580000  0.48150000  1.0
  H  H203  1  0.28390000  0.36800000  0.49950000  1.0
  H  H204  1  0.34340000  0.46260000  0.53370000  1.0
  H  H205  1  0.54830000  0.40690000  0.65950000  1.0
  H  H206  1  0.56460000  0.47660000  0.71270000  1.0
  H  H207  1  0.34900000  0.52790000  0.59380000  1.0
  C  C208  1  0.33180000  0.03100000  0.76900000  1.0
  C  C209  1  0.36920000  0.99270000  0.73990000  1.0
  C  C210  1  0.38040000  0.94670000  0.76310000  1.0
  C  C211  1  0.38910000  0.00100000  0.68930000  1.0
  C  C212  1  0.40840000  0.91110000  0.73380000  1.0
  C  C213  1  0.41580000  0.96550000  0.65850000  1.0
  C  C214  1  0.42210000  0.92070000  0.68040000  1.0
  C  C215  1  0.43660000  0.83810000  0.65850000  1.0
  C  C216  1  0.35470000  0.82000000  0.65180000  1.0
  C  C217  1  0.50910000  0.80920000  0.67490000  1.0
  C  C218  1  0.34680000  0.77300000  0.66330000  1.0
  C  C219  1  0.49930000  0.76210000  0.68600000  1.0
  C  C220  1  0.41880000  0.74390000  0.68150000  1.0
  C  C221  1  0.40880000  0.69340000  0.69860000  1.0
  C  C222  1  0.29610000  0.20630000  0.73880000  1.0
  C  C223  1  0.22950000  0.24300000  0.71070000  1.0
  C  C224  1  0.25600000  0.29010000  0.71480000  1.0
  C  C225  1  0.14290000  0.23110000  0.68060000  1.0
  C  C226  1  0.19480000  0.32590000  0.68960000  1.0
  C  C227  1  0.08280000  0.26600000  0.65500000  1.0
  C  C228  1  0.10890000  0.31190000  0.66040000  1.0
  C  C229  1  0.00750000  0.35500000  0.58090000  1.0
  C  C230  1  0.93950000  0.38760000  0.56820000  1.0
  C  C231  1  0.03150000  0.33340000  0.53530000  1.0
  C  C232  1  0.89190000  0.39510000  0.51000000  1.0
  C  C233  1  0.98380000  0.34270000  0.47680000  1.0
  C  C234  1  0.91390000  0.37250000  0.46360000  1.0
  C  C235  1  0.85430000  0.37960000  0.40170000  1.0
  C  C236  1  0.41350000  0.11670000  0.63570000  1.0
  C  C237  1  0.32640000  0.10610000  0.59090000  1.0
  C  C238  1  0.25050000  0.12190000  0.60060000  1.0
  C  C239  1  0.31940000  0.08140000  0.53950000  1.0
  C  C240  1  0.16790000  0.11400000  0.55890000  1.0
  C  C241  1  0.23790000  0.07260000  0.49770000  1.0
  C  C242  1  0.16260000  0.08910000  0.50730000  1.0
  C  C243  1  0.04860000  0.04480000  0.43640000  1.0
  C  C244  1  0.97930000  0.05140000  0.38410000  1.0
  C  C245  1  0.07970000  0.00110000  0.45480000  1.0
  C  C246  1  0.93950000  0.01180000  0.35250000  1.0
  C  C247  1  0.04000000  0.96160000  0.41970000  1.0
  C  C248  1  0.96970000  0.96660000  0.36970000  1.0
  C  C249  1  0.92950000  0.92570000  0.33240000  1.0
  C  C250  1  0.77230000  0.21980000  0.68410000  1.0
  C  C251  1  0.75760000  0.27110000  0.66790000  1.0
  C  C252  1  0.67270000  0.28790000  0.63930000  1.0
  C  C253  1  0.82670000  0.30270000  0.67870000  1.0
  C  C254  1  0.65770000  0.33480000  0.62380000  1.0
  C  C255  1  0.81220000  0.35010000  0.66520000  1.0
  C  C256  1  0.72770000  0.36690000  0.63750000  1.0
  C  C257  1  0.76330000  0.44940000  0.63830000  1.0
  C  C258  1  0.77570000  0.47860000  0.59540000  1.0
  C  C259  1  0.79810000  0.45980000  0.69740000  1.0
  C  C260  1  0.82940000  0.51810000  0.61230000  1.0
  C  C261  1  0.85120000  0.49950000  0.71440000  1.0
  C  C262  1  0.86780000  0.52930000  0.67190000  1.0
  C  C263  1  0.92880000  0.57090000  0.68890000  1.0
  C  C264  1  0.73960000  0.05780000  0.66330000  1.0
  C  C265  1  0.72850000  0.00580000  0.65410000  1.0
  C  C266  1  0.64470000  0.98660000  0.63650000  1.0
  C  C267  1  0.80110000  0.97610000  0.66360000  1.0
  C  C268  1  0.63430000  0.93860000  0.62770000  1.0
  C  C269  1  0.79090000  0.92800000  0.65690000  1.0
  C  C270  1  0.70600000  0.90920000  0.63780000  1.0
  C  C271  1  0.75260000  0.82690000  0.64050000  1.0
  C  C272  1  0.78100000  0.81270000  0.69780000  1.0
  C  C273  1  0.78110000  0.80680000  0.59820000  1.0
  C  C274  1  0.83680000  0.77290000  0.71210000  1.0
  C  C275  1  0.83680000  0.76820000  0.61330000  1.0
  C  C276  1  0.86350000  0.75010000  0.66990000  1.0
  C  C277  1  0.92320000  0.70850000  0.68550000  1.0
  C  C278  1  0.79620000  0.12960000  0.80850000  1.0
  C  C279  1  0.83460000  0.12420000  0.87520000  1.0
  C  C280  1  0.78100000  0.13260000  0.91230000  1.0
  C  C281  1  0.91950000  0.11010000  0.90080000  1.0
  C  C282  1  0.95310000  0.10480000  0.96420000  1.0
  C  C283  1  0.81830000  0.12710000  0.97470000  1.0
  C  C284  1  0.90410000  0.11480000  0.99830000  1.0
  C  C285  1  0.94750000  0.07070000  0.09060000  1.0
  C  C286  1  0.88670000  0.03500000  0.07060000  1.0
  C  C287  1  0.01060000  0.06770000  0.14490000  1.0
  C  C288  1  0.01790000  0.02690000  0.17770000  1.0
  C  C289  1  0.89120000  0.99590000  0.10610000  1.0
  C  C290  1  0.95700000  0.99130000  0.15930000  1.0
  C  C291  1  0.96030000  0.94950000  0.19860000  1.0
  C  C292  1  0.16820000  0.53100000  0.73100000  1.0
  C  C293  1  0.13080000  0.49270000  0.76010000  1.0
  C  C294  1  0.11960000  0.44670000  0.73690000  1.0
  C  C295  1  0.11090000  0.50100000  0.81070000  1.0
  C  C296  1  0.09160000  0.41110000  0.76620000  1.0
  C  C297  1  0.08420000  0.46550000  0.84150000  1.0
  C  C298  1  0.07790000  0.42070000  0.81960000  1.0
  C  C299  1  0.06340000  0.33810000  0.84150000  1.0
  C  C300  1  0.14530000  0.32000000  0.84820000  1.0
  C  C301  1  0.99090000  0.30920000  0.82510000  1.0
  C  C302  1  0.15320000  0.27300000  0.83670000  1.0
  C  C303  1  0.00070000  0.26210000  0.81400000  1.0
  C  C304  1  0.08120000  0.24390000  0.81850000  1.0
  C  C305  1  0.09120000  0.19340000  0.80140000  1.0
  C  C306  1  0.20390000  0.70630000  0.76120000  1.0
  C  C307  1  0.27050000  0.74300000  0.78930000  1.0
  C  C308  1  0.24400000  0.79010000  0.78520000  1.0
  C  C309  1  0.35710000  0.73110000  0.81940000  1.0
  C  C310  1  0.30520000  0.82590000  0.81040000  1.0
  C  C311  1  0.41720000  0.76600000  0.84500000  1.0
  C  C312  1  0.39110000  0.81190000  0.83960000  1.0
  C  C313  1  0.49250000  0.85500000  0.91910000  1.0
  C  C314  1  0.56050000  0.88760000  0.93180000  1.0
  C  C315  1  0.46850000  0.83340000  0.96470000  1.0
  C  C316  1  0.60810000  0.89510000  0.99000000  1.0
  C  C317  1  0.51620000  0.84270000  0.02320000  1.0
  C  C318  1  0.58610000  0.87250000  0.03640000  1.0
  C  C319  1  0.64570000  0.87960000  0.09830000  1.0
  C  C320  1  0.08650000  0.61670000  0.86430000  1.0
  C  C321  1  0.17360000  0.60610000  0.90910000  1.0
  C  C322  1  0.24950000  0.62190000  0.89940000  1.0
  C  C323  1  0.18060000  0.58140000  0.96050000  1.0
  C  C324  1  0.33210000  0.61400000  0.94110000  1.0
  C  C325  1  0.26210000  0.57260000  0.00230000  1.0
  C  C326  1  0.33740000  0.58910000  0.99270000  1.0
  C  C327  1  0.45140000  0.54480000  0.06360000  1.0
  C  C328  1  0.52070000  0.55140000  0.11590000  1.0
  C  C329  1  0.42030000  0.50110000  0.04520000  1.0
  C  C330  1  0.56050000  0.51180000  0.14750000  1.0
  C  C331  1  0.46000000  0.46160000  0.08030000  1.0
  C  C332  1  0.53030000  0.46660000  0.13030000  1.0
  C  C333  1  0.57050000  0.42570000  0.16760000  1.0
  C  C334  1  0.72770000  0.71980000  0.81590000  1.0
  C  C335  1  0.74240000  0.77110000  0.83210000  1.0
  C  C336  1  0.82730000  0.78790000  0.86070000  1.0
  C  C337  1  0.67330000  0.80270000  0.82130000  1.0
  C  C338  1  0.84230000  0.83480000  0.87620000  1.0
  C  C339  1  0.68780000  0.85010000  0.83480000  1.0
  C  C340  1  0.77230000  0.86690000  0.86250000  1.0
  C  C341  1  0.73670000  0.94940000  0.86170000  1.0
  C  C342  1  0.72430000  0.97860000  0.90460000  1.0
  C  C343  1  0.70190000  0.95980000  0.80260000  1.0
  C  C344  1  0.67060000  0.01810000  0.88770000  1.0
  C  C345  1  0.64880000  0.99950000  0.78560000  1.0
  C  C346  1  0.63220000  0.02930000  0.82810000  1.0
  C  C347  1  0.57120000  0.07090000  0.81110000  1.0
  C  C348  1  0.76040000  0.55780000  0.83670000  1.0
  C  C349  1  0.77150000  0.50580000  0.84590000  1.0
  C  C350  1  0.85530000  0.48660000  0.86350000  1.0
  C  C351  1  0.69890000  0.47610000  0.83640000  1.0
  C  C352  1  0.86570000  0.43860000  0.87230000  1.0
  C  C353  1  0.70910000  0.42800000  0.84310000  1.0
  C  C354  1  0.79400000  0.40920000  0.86220000  1.0
  C  C355  1  0.74740000  0.32690000  0.85950000  1.0
  C  C356  1  0.71900000  0.31270000  0.80220000  1.0
  C  C357  1  0.71890000  0.30680000  0.90180000  1.0
  C  C358  1  0.66320000  0.27290000  0.78790000  1.0
  C  C359  1  0.66320000  0.26820000  0.88670000  1.0
  C  C360  1  0.63650000  0.25010000  0.83010000  1.0
  C  C361  1  0.57680000  0.20850000  0.81450000  1.0
  C  C362  1  0.70380000  0.62960000  0.69150000  1.0
  C  C363  1  0.66540000  0.62420000  0.62480000  1.0
  C  C364  1  0.71900000  0.63260000  0.58770000  1.0
  C  C365  1  0.58050000  0.61010000  0.59920000  1.0
  C  C366  1  0.54690000  0.60480000  0.53580000  1.0
  C  C367  1  0.68170000  0.62710000  0.52530000  1.0
  C  C368  1  0.59590000  0.61480000  0.50170000  1.0
  C  C369  1  0.55250000  0.57070000  0.40940000  1.0
  C  C370  1  0.61330000  0.53500000  0.42940000  1.0
  C  C371  1  0.48940000  0.56770000  0.35510000  1.0
  C  C372  1  0.48210000  0.52690000  0.32230000  1.0
  C  C373  1  0.60880000  0.49590000  0.39390000  1.0
  C  C374  1  0.54300000  0.49130000  0.34070000  1.0
  C  C375  1  0.53970000  0.44950000  0.30140000  1.0
  C  C376  1  0.66820000  0.96900000  0.23100000  1.0
  C  C377  1  0.63080000  0.00730000  0.26010000  1.0
  C  C378  1  0.61960000  0.05330000  0.23690000  1.0
  C  C379  1  0.61090000  0.99900000  0.31070000  1.0
  C  C380  1  0.59160000  0.08890000  0.26620000  1.0
  C  C381  1  0.58420000  0.03450000  0.34150000  1.0
  C  C382  1  0.57790000  0.07930000  0.31960000  1.0
  C  C383  1  0.56340000  0.16190000  0.34150000  1.0
  C  C384  1  0.64530000  0.18000000  0.34820000  1.0
  C  C385  1  0.49090000  0.19080000  0.32510000  1.0
  C  C386  1  0.65320000  0.22700000  0.33670000  1.0
  C  C387  1  0.50070000  0.23790000  0.31400000  1.0
  C  C388  1  0.58120000  0.25610000  0.31850000  1.0
  C  C389  1  0.59120000  0.30660000  0.30140000  1.0
  C  C390  1  0.70390000  0.79370000  0.26120000  1.0
  C  C391  1  0.77050000  0.75700000  0.28930000  1.0
  C  C392  1  0.74400000  0.70990000  0.28520000  1.0
  C  C393  1  0.85710000  0.76890000  0.31940000  1.0
  C  C394  1  0.80520000  0.67410000  0.31040000  1.0
  C  C395  1  0.91720000  0.73400000  0.34500000  1.0
  C  C396  1  0.89110000  0.68810000  0.33960000  1.0
  C  C397  1  0.99250000  0.64500000  0.41910000  1.0
  C  C398  1  0.06050000  0.61240000  0.43180000  1.0
  C  C399  1  0.96850000  0.66666667  0.46470000  1.0
  C  C400  1  0.10810000  0.60490000  0.49000000  1.0
  C  C401  1  0.01620000  0.65730000  0.52320000  1.0
  C  C402  1  0.08610000  0.62750000  0.53640000  1.0
  C  C403  1  0.14570000  0.62040000  0.59830000  1.0
  C  C404  1  0.58650000  0.88330000  0.36430000  1.0
  C  C405  1  0.67360000  0.89390000  0.40910000  1.0
  C  C406  1  0.74950000  0.87810000  0.39940000  1.0
  C  C407  1  0.68060000  0.91860000  0.46050000  1.0
  C  C408  1  0.83210000  0.88600000  0.44110000  1.0
  C  C409  1  0.76210000  0.92740000  0.50230000  1.0
  C  C410  1  0.83740000  0.91090000  0.49270000  1.0
  C  C411  1  0.95140000  0.95520000  0.56360000  1.0
  C  C412  1  0.02070000  0.94860000  0.61590000  1.0
  C  C413  1  0.92030000  0.99890000  0.54520000  1.0
  C  C414  1  0.06050000  0.98820000  0.64750000  1.0
  C  C415  1  0.96000000  0.03840000  0.58030000  1.0
  C  C416  1  0.03030000  0.03340000  0.63030000  1.0
  C  C417  1  0.07050000  0.07430000  0.66760000  1.0
  C  C418  1  0.22770000  0.78020000  0.31590000  1.0
  C  C419  1  0.24240000  0.72890000  0.33210000  1.0
  C  C420  1  0.32730000  0.71210000  0.36070000  1.0
  C  C421  1  0.17330000  0.69730000  0.32130000  1.0
  C  C422  1  0.34230000  0.66520000  0.37620000  1.0
  C  C423  1  0.18780000  0.64990000  0.33480000  1.0
  C  C424  1  0.27230000  0.63310000  0.36250000  1.0
  C  C425  1  0.23670000  0.55060000  0.36170000  1.0
  C  C426  1  0.22430000  0.52140000  0.40460000  1.0
  C  C427  1  0.20190000  0.54020000  0.30260000  1.0
  C  C428  1  0.17060000  0.48190000  0.38770000  1.0
  C  C429  1  0.14880000  0.50050000  0.28560000  1.0
  C  C430  1  0.13220000  0.47070000  0.32810000  1.0
  C  C431  1  0.07120000  0.42910000  0.31110000  1.0
  C  C432  1  0.26040000  0.94220000  0.33670000  1.0
  C  C433  1  0.27150000  0.99420000  0.34590000  1.0
  C  C434  1  0.35530000  0.01340000  0.36350000  1.0
  C  C435  1  0.19890000  0.02390000  0.33640000  1.0
  C  C436  1  0.36570000  0.06140000  0.37230000  1.0
  C  C437  1  0.20910000  0.07200000  0.34310000  1.0
  C  C438  1  0.29400000  0.09080000  0.36220000  1.0
  C  C439  1  0.24740000  0.17310000  0.35950000  1.0
  C  C440  1  0.21900000  0.18730000  0.30220000  1.0
  C  C441  1  0.21890000  0.19320000  0.40180000  1.0
  C  C442  1  0.16320000  0.22710000  0.28790000  1.0
  C  C443  1  0.16320000  0.23180000  0.38670000  1.0
  C  C444  1  0.13650000  0.24990000  0.33010000  1.0
  C  C445  1  0.07680000  0.29150000  0.31450000  1.0
  C  C446  1  0.20380000  0.87040000  0.19150000  1.0
  C  C447  1  0.16540000  0.87580000  0.12480000  1.0
  C  C448  1  0.21900000  0.86740000  0.08770000  1.0
  C  C449  1  0.08050000  0.88990000  0.09920000  1.0
  C  C450  1  0.04690000  0.89520000  0.03580000  1.0
  C  C451  1  0.18170000  0.87290000  0.02530000  1.0
  C  C452  1  0.09590000  0.88520000  0.00170000  1.0
  C  C453  1  0.05250000  0.92930000  0.90940000  1.0
  C  C454  1  0.11330000  0.96500000  0.92940000  1.0
  C  C455  1  0.98940000  0.93230000  0.85510000  1.0
  C  C456  1  0.98210000  0.97310000  0.82230000  1.0
  C  C457  1  0.10880000  0.00410000  0.89390000  1.0
  C  C458  1  0.04300000  0.00870000  0.84070000  1.0
  C  C459  1  0.03970000  0.05050000  0.80140000  1.0
  C  C460  1  0.83180000  0.46900000  0.26900000  1.0
  C  C461  1  0.86920000  0.50730000  0.23990000  1.0
  C  C462  1  0.88040000  0.55330000  0.26310000  1.0
  C  C463  1  0.88910000  0.49900000  0.18930000  1.0
  C  C464  1  0.90840000  0.58890000  0.23380000  1.0
  C  C465  1  0.91580000  0.53450000  0.15850000  1.0
  C  C466  1  0.92210000  0.57930000  0.18040000  1.0
  C  C467  1  0.93660000  0.66190000  0.15850000  1.0
  C  C468  1  0.85470000  0.68000000  0.15180000  1.0
  C  C469  1  0.00910000  0.69080000  0.17490000  1.0
  C  C470  1  0.84680000  0.72700000  0.16330000  1.0
  C  C471  1  0.99930000  0.73790000  0.18600000  1.0
  C  C472  1  0.91880000  0.75610000  0.18150000  1.0
  C  C473  1  0.90880000  0.80660000  0.19860000  1.0
  C  C474  1  0.79610000  0.29370000  0.23880000  1.0
  C  C475  1  0.72950000  0.25700000  0.21070000  1.0
  C  C476  1  0.75600000  0.20990000  0.21480000  1.0
  C  C477  1  0.64290000  0.26890000  0.18060000  1.0
  C  C478  1  0.69480000  0.17410000  0.18960000  1.0
  C  C479  1  0.58280000  0.23400000  0.15500000  1.0
  C  C480  1  0.60890000  0.18810000  0.16040000  1.0
  C  C481  1  0.50750000  0.14500000  0.08090000  1.0
  C  C482  1  0.43950000  0.11240000  0.06820000  1.0
  C  C483  1  0.53150000  0.16660000  0.03530000  1.0
  C  C484  1  0.39190000  0.10490000  0.01000000  1.0
  C  C485  1  0.48380000  0.15730000  0.97680000  1.0
  C  C486  1  0.41390000  0.12750000  0.96360000  1.0
  C  C487  1  0.35430000  0.12040000  0.90170000  1.0
  C  C488  1  0.91350000  0.38330000  0.13570000  1.0
  C  C489  1  0.82640000  0.39390000  0.09090000  1.0
  C  C490  1  0.75050000  0.37810000  0.10060000  1.0
  C  C491  1  0.81940000  0.41860000  0.03950000  1.0
  C  C492  1  0.66790000  0.38600000  0.05890000  1.0
  C  C493  1  0.73790000  0.42740000  0.99770000  1.0
  C  C494  1  0.66260000  0.41090000  0.00730000  1.0
  C  C495  1  0.54860000  0.45520000  0.93640000  1.0
  C  C496  1  0.47930000  0.44860000  0.88410000  1.0
  C  C497  1  0.57970000  0.49890000  0.95480000  1.0
  C  C498  1  0.43950000  0.48820000  0.85250000  1.0
  C  C499  1  0.54000000  0.53840000  0.91970000  1.0
  C  C500  1  0.46970000  0.53340000  0.86970000  1.0
  C  C501  1  0.42950000  0.57430000  0.83240000  1.0
  C  C502  1  0.27230000  0.28020000  0.18410000  1.0
  C  C503  1  0.25760000  0.22890000  0.16790000  1.0
  C  C504  1  0.17270000  0.21210000  0.13930000  1.0
  C  C505  1  0.32670000  0.19730000  0.17870000  1.0
  C  C506  1  0.15770000  0.16520000  0.12380000  1.0
  C  C507  1  0.31220000  0.14990000  0.16520000  1.0
  C  C508  1  0.22770000  0.13310000  0.13750000  1.0
  C  C509  1  0.26330000  0.05060000  0.13830000  1.0
  C  C510  1  0.27570000  0.02140000  0.09540000  1.0
  C  C511  1  0.29810000  0.04020000  0.19740000  1.0
  C  C512  1  0.32940000  0.98190000  0.11230000  1.0
  C  C513  1  0.35120000  0.00050000  0.21440000  1.0
  C  C514  1  0.36780000  0.97070000  0.17190000  1.0
  C  C515  1  0.42880000  0.92910000  0.18890000  1.0
  C  C516  1  0.23960000  0.44220000  0.16330000  1.0
  C  C517  1  0.22850000  0.49420000  0.15410000  1.0
  C  C518  1  0.14470000  0.51340000  0.13650000  1.0
  C  C519  1  0.30110000  0.52390000  0.16360000  1.0
  C  C520  1  0.13430000  0.56140000  0.12770000  1.0
  C  C521  1  0.29090000  0.57200000  0.15690000  1.0
  C  C522  1  0.20600000  0.59080000  0.13780000  1.0
  C  C523  1  0.25260000  0.67310000  0.14050000  1.0
  C  C524  1  0.28100000  0.68730000  0.19780000  1.0
  C  C525  1  0.28110000  0.69320000  0.09820000  1.0
  C  C526  1  0.33680000  0.72710000  0.21210000  1.0
  C  C527  1  0.33680000  0.73180000  0.11330000  1.0
  C  C528  1  0.36350000  0.74990000  0.16990000  1.0
  C  C529  1  0.42320000  0.79150000  0.18550000  1.0
  C  C530  1  0.29620000  0.37040000  0.30850000  1.0
  C  C531  1  0.33460000  0.37580000  0.37520000  1.0
  C  C532  1  0.28100000  0.36740000  0.41230000  1.0
  C  C533  1  0.41950000  0.38990000  0.40080000  1.0
  C  C534  1  0.45310000  0.39520000  0.46420000  1.0
  C  C535  1  0.31830000  0.37290000  0.47470000  1.0
  C  C536  1  0.40410000  0.38520000  0.49830000  1.0
  C  C537  1  0.44750000  0.42930000  0.59060000  1.0
  C  C538  1  0.38670000  0.46500000  0.57060000  1.0
  C  C539  1  0.51060000  0.43230000  0.64490000  1.0
  C  C540  1  0.51790000  0.47310000  0.67770000  1.0
  C  C541  1  0.39120000  0.50410000  0.60610000  1.0
  C  C542  1  0.45700000  0.50870000  0.65930000  1.0
  C  C543  1  0.46030000  0.55050000  0.69860000  1.0
  O  O544  1  0.28260000  0.02235000  0.79960000  1.0
  O  O545  1  0.34740000  0.07418000  0.75810000  1.0
  O  O546  1  0.44810000  0.88562000  0.64730000  1.0
  O  O547  1  0.47670000  0.67167000  0.72700000  1.0
  O  O548  1  0.33220000  0.67560000  0.68520000  1.0
  O  O549  1  0.27490000  0.16224000  0.73780000  1.0
  O  O550  1  0.37510000  0.21765000  0.76100000  1.0
  O  O551  1  0.05040000  0.34940000  0.64000000  1.0
  O  O552  1  0.87220000  0.36181000  0.35700000  1.0
  O  O553  1  0.78540000  0.40427000  0.39350000  1.0
  O  O554  1  0.41540000  0.14127000  0.68110000  1.0
  O  O555  1  0.48320000  0.10283000  0.62640000  1.0
  O  O556  1  0.07960000  0.08640000  0.46690000  1.0
  O  O557  1  0.97600000  0.88970000  0.33400000  1.0
  O  O558  1  0.85080000  0.92850000  0.30020000  1.0
  O  O559  1  0.70610000  0.19470000  0.68070000  1.0
  O  O560  1  0.85020000  0.20454000  0.69970000  1.0
  O  O561  1  0.70550000  0.41215000  0.61740000  1.0
  O  O562  1  0.94800000  0.58809000  0.74160000  1.0
  O  O563  1  0.96150000  0.58662000  0.65150000  1.0
  O  O564  1  0.67680000  0.07979000  0.67320000  1.0
  O  O565  1  0.80850000  0.07741000  0.66020000  1.0
  O  O566  1  0.68770000  0.86223000  0.62380000  1.0
  O  O567  1  0.94310000  0.69098000  0.73763000  1.0
  O  O568  1  0.95740000  0.69285000  0.64840000  1.0
  O  O569  1  0.84820000  0.12690000  0.77950000  1.0
  O  O570  1  0.71600000  0.13739000  0.78830000  1.0
  O  O571  1  0.94430000  0.11330000  0.05870000  1.0
  O  O572  1  0.89190000  0.92464000  0.18680000  1.0
  O  O573  1  0.02840000  0.94085000  0.24070000  1.0
  O  O574  1  0.21740000  0.52235000  0.70040000  1.0
  O  O575  1  0.15260000  0.57418000  0.74190000  1.0
  O  O576  1  0.05190000  0.38562000  0.85270000  1.0
  O  O577  1  0.02330000  0.17167000  0.77300000  1.0
  O  O578  1  0.16780000  0.17560000  0.81480000  1.0
  O  O579  1  0.22510000  0.66224000  0.76220000  1.0
  O  O580  1  0.12490000  0.71765000  0.73900000  1.0
  O  O581  1  0.44960000  0.84940000  0.86000000  1.0
  O  O582  1  0.62780000  0.86181000  0.14300000  1.0
  O  O583  1  0.71460000  0.90427000  0.10650000  1.0
  O  O584  1  0.08460000  0.64127000  0.81890000  1.0
  O  O585  1  0.01680000  0.60283000  0.87360000  1.0
  O  O586  1  0.42040000  0.58640000  0.03310000  1.0
  O  O587  1  0.52400000  0.38970000  0.16600000  1.0
  O  O588  1  0.64920000  0.42850000  0.19980000  1.0
  O  O589  1  0.79390000  0.69470000  0.81930000  1.0
  O  O590  1  0.64980000  0.70454000  0.80030000  1.0
  O  O591  1  0.79450000  0.91215000  0.88260000  1.0
  O  O592  1  0.55200000  0.08809000  0.75840000  1.0
  O  O593  1  0.53850000  0.08662000  0.84850000  1.0
  O  O594  1  0.82320000  0.57979000  0.82680000  1.0
  O  O595  1  0.69150000  0.57741000  0.83980000  1.0
  O  O596  1  0.81230000  0.36223000  0.87620000  1.0
  O  O597  1  0.55690000  0.19098000  0.76237000  1.0
  O  O598  1  0.54260000  0.19285000  0.85160000  1.0
  O  O599  1  0.65180000  0.62690000  0.72050000  1.0
  O  O600  1  0.78400000  0.63739000  0.71170000  1.0
  O  O601  1  0.55570000  0.61330000  0.44130000  1.0
  O  O602  1  0.60810000  0.42464000  0.31320000  1.0
  O  O603  1  0.47160000  0.44085000  0.25930000  1.0
  O  O604  1  0.71740000  0.97765000  0.20040000  1.0
  O  O605  1  0.65260000  0.92582000  0.24190000  1.0
  O  O606  1  0.55190000  0.11438000  0.35270000  1.0
  O  O607  1  0.52330000  0.32833000  0.27300000  1.0
  O  O608  1  0.66780000  0.32440000  0.31480000  1.0
  O  O609  1  0.72510000  0.83776000  0.26220000  1.0
  O  O610  1  0.62490000  0.78235000  0.23900000  1.0
  O  O611  1  0.94960000  0.65060000  0.36000000  1.0
  O  O612  1  0.12780000  0.63819000  0.64300000  1.0
  O  O613  1  0.21460000  0.59573000  0.60650000  1.0
  O  O614  1  0.58460000  0.85873000  0.31890000  1.0
  O  O615  1  0.51680000  0.89717000  0.37360000  1.0
  O  O616  1  0.92040000  0.91360000  0.53310000  1.0
  O  O617  1  0.02400000  0.11030000  0.66600000  1.0
  O  O618  1  0.14920000  0.07150000  0.69980000  1.0
  O  O619  1  0.29390000  0.80530000  0.31930000  1.0
  O  O620  1  0.14980000  0.79546000  0.30030000  1.0
  O  O621  1  0.29450000  0.58785000  0.38260000  1.0
  O  O622  1  0.05200000  0.41191000  0.25840000  1.0
  O  O623  1  0.03850000  0.41338000  0.34850000  1.0
  O  O624  1  0.32320000  0.92021000  0.32680000  1.0
  O  O625  1  0.19150000  0.92259000  0.33980000  1.0
  O  O626  1  0.31230000  0.13777000  0.37620000  1.0
  O  O627  1  0.05690000  0.30902000  0.26237000  1.0
  O  O628  1  0.04260000  0.30715000  0.35160000  1.0
  O  O629  1  0.15180000  0.87310000  0.22050000  1.0
  O  O630  1  0.28400000  0.86261000  0.21170000  1.0
  O  O631  1  0.05570000  0.88670000  0.94130000  1.0
  O  O632  1  0.10810000  0.07536000  0.81320000  1.0
  O  O633  1  0.97160000  0.05915000  0.75930000  1.0
  O  O634  1  0.78260000  0.47765000  0.29960000  1.0
  O  O635  1  0.84740000  0.42582000  0.25810000  1.0
  O  O636  1  0.94810000  0.61438000  0.14730000  1.0
  O  O637  1  0.97670000  0.82833000  0.22700000  1.0
  O  O638  1  0.83220000  0.82440000  0.18520000  1.0
  O  O639  1  0.77490000  0.33776000  0.23780000  1.0
  O  O640  1  0.87510000  0.28235000  0.26100000  1.0
  O  O641  1  0.55040000  0.15060000  0.14000000  1.0
  O  O642  1  0.37220000  0.13819000  0.85700000  1.0
  O  O643  1  0.28540000  0.09573000  0.89350000  1.0
  O  O644  1  0.91540000  0.35873000  0.18110000  1.0
  O  O645  1  0.98320000  0.39717000  0.12640000  1.0
  O  O646  1  0.57960000  0.41360000  0.96690000  1.0
  O  O647  1  0.47600000  0.61030000  0.83400000  1.0
  O  O648  1  0.35080000  0.57150000  0.80020000  1.0
  O  O649  1  0.20610000  0.30530000  0.18070000  1.0
  O  O650  1  0.35020000  0.29546000  0.19970000  1.0
  O  O651  1  0.20550000  0.08785000  0.11740000  1.0
  O  O652  1  0.44800000  0.91191000  0.24160000  1.0
  O  O653  1  0.46150000  0.91338000  0.15150000  1.0
  O  O654  1  0.17680000  0.42021000  0.17320000  1.0
  O  O655  1  0.30850000  0.42259000  0.16020000  1.0
  O  O656  1  0.18770000  0.63777000  0.12380000  1.0
  O  O657  1  0.44310000  0.80902000  0.23763000  1.0
  O  O658  1  0.45740000  0.80715000  0.14840000  1.0
  O  O659  1  0.34820000  0.37310000  0.27950000  1.0
  O  O660  1  0.21600000  0.36261000  0.28830000  1.0
  O  O661  1  0.44430000  0.38670000  0.55870000  1.0
  O  O662  1  0.39190000  0.57536000  0.68680000  1.0
  O  O663  1  0.52840000  0.55915000  0.74070000  1.0
