# generated using pymatgen
data_Ag3H14(C2N)8
_symmetry_space_group_name_H-M   'P 1'
_cell_length_a   24.98000000
_cell_length_b   19.32700000
_cell_length_c   21.40700000
_cell_angle_alpha   90.00000000
_cell_angle_beta   96.01900000
_cell_angle_gamma   90.00000000
_symmetry_Int_Tables_number   1
_chemical_formula_structural   Ag3H14(C2N)8
_chemical_formula_sum   'Ag48 H224 C256 N128'
_cell_volume   10278.07725535
_cell_formula_units_Z   16
loop_
 _symmetry_equiv_pos_site_id
 _symmetry_equiv_pos_as_xyz
  1  'x, y, z'
loop_
 _atom_site_type_symbol
 _atom_site_label
 _atom_site_symmetry_multiplicity
 _atom_site_fract_x
 _atom_site_fract_y
 _atom_site_fract_z
 _atom_site_occupancy
  Ag  Ag0  1  0.98943000  0.20635000  0.27645000  1.0
  Ag  Ag1  1  0.05897000  0.51842000  0.23451000  1.0
  Ag  Ag2  1  0.73334000  0.32836000  0.92530000  1.0
  Ag  Ag3  1  0.59344000  0.21858000  0.87476000  1.0
  Ag  Ag4  1  0.53719000  0.28686000  0.71546000  1.0
  Ag  Ag5  1  0.55325000  0.48102000  0.73053000  1.0
  Ag  Ag6  1  0.49125000  0.56715000  0.56602000  1.0
  Ag  Ag7  1  0.19452000  0.71268000  0.44801000  1.0
  Ag  Ag8  1  0.92169000  0.29205000  0.12249000  1.0
  Ag  Ag9  1  0.02115000  0.93605000  0.43958000  1.0
  Ag  Ag10  1  0.06928000  0.97930000  0.44327000  1.0
  Ag  Ag11  1  0.97042000  0.91280000  0.43647000  1.0
  Ag  Ag12  1  0.01057000  0.70635000  0.22355000  1.0
  Ag  Ag13  1  0.94103000  0.01842000  0.26549000  1.0
  Ag  Ag14  1  0.26666000  0.82836000  0.57470000  1.0
  Ag  Ag15  1  0.40656000  0.71858000  0.62524000  1.0
  Ag  Ag16  1  0.46281000  0.78686000  0.78454000  1.0
  Ag  Ag17  1  0.44675000  0.98102000  0.76947000  1.0
  Ag  Ag18  1  0.50875000  0.06715000  0.93398000  1.0
  Ag  Ag19  1  0.80548000  0.21268000  0.05199000  1.0
  Ag  Ag20  1  0.07831000  0.79205000  0.37751000  1.0
  Ag  Ag21  1  0.97885000  0.43605000  0.06042000  1.0
  Ag  Ag22  1  0.93072000  0.47930000  0.05673000  1.0
  Ag  Ag23  1  0.02958000  0.41280000  0.06353000  1.0
  Ag  Ag24  1  0.01057000  0.79365000  0.72355000  1.0
  Ag  Ag25  1  0.94103000  0.48158000  0.76549000  1.0
  Ag  Ag26  1  0.26666000  0.67164000  0.07470000  1.0
  Ag  Ag27  1  0.40656000  0.78142000  0.12524000  1.0
  Ag  Ag28  1  0.46281000  0.71314000  0.28454000  1.0
  Ag  Ag29  1  0.44675000  0.51898000  0.26947000  1.0
  Ag  Ag30  1  0.50875000  0.43285000  0.43398000  1.0
  Ag  Ag31  1  0.80548000  0.28732000  0.55199000  1.0
  Ag  Ag32  1  0.07831000  0.70795000  0.87751000  1.0
  Ag  Ag33  1  0.97885000  0.06395000  0.56042000  1.0
  Ag  Ag34  1  0.93072000  0.02070000  0.55673000  1.0
  Ag  Ag35  1  0.02958000  0.08720000  0.56353000  1.0
  Ag  Ag36  1  0.98943000  0.29365000  0.77645000  1.0
  Ag  Ag37  1  0.05897000  0.98158000  0.73451000  1.0
  Ag  Ag38  1  0.73334000  0.17164000  0.42530000  1.0
  Ag  Ag39  1  0.59344000  0.28142000  0.37476000  1.0
  Ag  Ag40  1  0.53719000  0.21314000  0.21546000  1.0
  Ag  Ag41  1  0.55325000  0.01898000  0.23053000  1.0
  Ag  Ag42  1  0.49125000  0.93285000  0.06602000  1.0
  Ag  Ag43  1  0.19452000  0.78732000  0.94801000  1.0
  Ag  Ag44  1  0.92169000  0.20795000  0.62249000  1.0
  Ag  Ag45  1  0.02115000  0.56395000  0.93958000  1.0
  Ag  Ag46  1  0.06928000  0.52070000  0.94327000  1.0
  Ag  Ag47  1  0.97042000  0.58720000  0.93647000  1.0
  H  H48  1  0.56270000  0.72190000  0.84120000  1.0
  H  H49  1  0.58540000  0.60820000  0.99600000  1.0
  H  H50  1  0.53700000  0.51890000  0.94750000  1.0
  H  H51  1  0.50560000  0.52830000  0.84180000  1.0
  H  H52  1  0.62010000  0.72130000  0.00030000  1.0
  H  H53  1  0.58620000  0.77400000  0.95690000  1.0
  H  H54  1  0.64020000  0.74450000  0.93660000  1.0
  H  H55  1  0.59460000  0.24330000  0.60630000  1.0
  H  H56  1  0.61370000  0.13880000  0.55710000  1.0
  H  H57  1  0.56730000  0.10820000  0.46550000  1.0
  H  H58  1  0.48610000  0.28690000  0.46020000  1.0
  H  H59  1  0.49840000  0.12470000  0.38230000  1.0
  H  H60  1  0.48840000  0.20180000  0.36170000  1.0
  H  H61  1  0.44960000  0.16560000  0.40440000  1.0
  H  H62  1  0.64750000  0.54710000  0.79380000  1.0
  H  H63  1  0.72800000  0.65040000  0.93650000  1.0
  H  H64  1  0.72720000  0.55510000  0.99860000  1.0
  H  H65  1  0.68890000  0.45410000  0.96010000  1.0
  H  H66  1  0.70470000  0.71020000  0.83570000  1.0
  H  H67  1  0.65040000  0.68300000  0.80090000  1.0
  H  H68  1  0.70540000  0.65990000  0.77840000  1.0
  H  H69  1  0.87410000  0.53880000  0.97930000  1.0
  H  H70  1  0.82920000  0.60520000  0.80680000  1.0
  H  H71  1  0.81090000  0.49060000  0.77540000  1.0
  H  H72  1  0.81180000  0.40640000  0.84910000  1.0
  H  H73  1  0.88140000  0.65930000  0.95990000  1.0
  H  H74  1  0.83590000  0.68550000  0.90960000  1.0
  H  H75  1  0.89440000  0.67470000  0.89120000  1.0
  H  H76  1  0.01110000  0.45890000  0.33810000  1.0
  H  H77  1  0.04390000  0.47110000  0.44400000  1.0
  H  H78  1  0.09870000  0.38960000  0.49220000  1.0
  H  H79  1  0.09080000  0.28050000  0.33570000  1.0
  H  H80  1  0.14850000  0.29380000  0.49710000  1.0
  H  H81  1  0.17150000  0.27350000  0.43430000  1.0
  H  H82  1  0.12140000  0.23430000  0.45520000  1.0
  H  H83  1  0.18560000  0.57810000  0.46440000  1.0
  H  H84  1  0.23930000  0.49060000  0.50640000  1.0
  H  H85  1  0.25230000  0.39320000  0.44760000  1.0
  H  H86  1  0.15790000  0.47010000  0.30550000  1.0
  H  H87  1  0.19810000  0.36660000  0.29070000  1.0
  H  H88  1  0.20640000  0.32070000  0.35120000  1.0
  H  H89  1  0.25550000  0.35950000  0.32730000  1.0
  H  H90  1  0.73900000  0.21140000  0.14630000  1.0
  H  H91  1  0.72380000  0.06060000  0.27250000  1.0
  H  H92  1  0.67550000  0.99460000  0.19550000  1.0
  H  H93  1  0.65900000  0.03700000  0.09390000  1.0
  H  H94  1  0.78060000  0.17290000  0.30420000  1.0
  H  H95  1  0.75810000  0.23750000  0.26560000  1.0
  H  H96  1  0.80890000  0.19840000  0.24640000  1.0
  H  H97  1  0.01980000  0.22230000  0.53230000  1.0
  H  H98  1  0.93300000  0.39670000  0.50660000  1.0
  H  H99  1  0.89510000  0.35730000  0.41010000  1.0
  H  H100  1  0.91860000  0.25140000  0.37560000  1.0
  H  H101  1  0.99770000  0.38780000  0.60030000  1.0
  H  H102  1  0.00560000  0.31160000  0.62480000  1.0
  H  H103  1  0.04900000  0.34590000  0.58690000  1.0
  H  H104  1  0.43730000  0.22190000  0.65880000  1.0
  H  H105  1  0.41460000  0.10820000  0.50400000  1.0
  H  H106  1  0.46300000  0.01890000  0.55250000  1.0
  H  H107  1  0.49440000  0.02830000  0.65820000  1.0
  H  H108  1  0.37990000  0.22130000  0.49970000  1.0
  H  H109  1  0.41380000  0.27400000  0.54310000  1.0
  H  H110  1  0.35980000  0.24450000  0.56340000  1.0
  H  H111  1  0.40540000  0.74330000  0.89370000  1.0
  H  H112  1  0.38630000  0.63880000  0.94290000  1.0
  H  H113  1  0.43270000  0.60820000  0.03450000  1.0
  H  H114  1  0.51390000  0.78690000  0.03980000  1.0
  H  H115  1  0.50160000  0.62470000  0.11770000  1.0
  H  H116  1  0.51160000  0.70180000  0.13830000  1.0
  H  H117  1  0.55040000  0.66560000  0.09560000  1.0
  H  H118  1  0.35250000  0.04710000  0.70620000  1.0
  H  H119  1  0.27200000  0.15040000  0.56350000  1.0
  H  H120  1  0.27280000  0.05510000  0.50140000  1.0
  H  H121  1  0.31110000  0.95410000  0.53990000  1.0
  H  H122  1  0.29530000  0.21020000  0.66430000  1.0
  H  H123  1  0.34960000  0.18300000  0.69910000  1.0
  H  H124  1  0.29460000  0.15990000  0.72160000  1.0
  H  H125  1  0.12590000  0.03880000  0.52070000  1.0
  H  H126  1  0.17080000  0.10520000  0.69320000  1.0
  H  H127  1  0.18910000  0.99060000  0.72460000  1.0
  H  H128  1  0.18820000  0.90640000  0.65090000  1.0
  H  H129  1  0.11860000  0.15930000  0.54010000  1.0
  H  H130  1  0.16410000  0.18550000  0.59040000  1.0
  H  H131  1  0.10560000  0.17470000  0.60880000  1.0
  H  H132  1  0.98890000  0.95890000  0.16190000  1.0
  H  H133  1  0.95610000  0.97110000  0.05600000  1.0
  H  H134  1  0.90130000  0.88960000  0.00780000  1.0
  H  H135  1  0.90920000  0.78050000  0.16430000  1.0
  H  H136  1  0.85150000  0.79380000  0.00290000  1.0
  H  H137  1  0.82850000  0.77350000  0.06570000  1.0
  H  H138  1  0.87860000  0.73430000  0.04480000  1.0
  H  H139  1  0.81440000  0.07810000  0.03560000  1.0
  H  H140  1  0.76070000  0.99060000  0.99360000  1.0
  H  H141  1  0.74770000  0.89320000  0.05240000  1.0
  H  H142  1  0.84210000  0.97010000  0.19450000  1.0
  H  H143  1  0.80190000  0.86660000  0.20930000  1.0
  H  H144  1  0.79360000  0.82070000  0.14880000  1.0
  H  H145  1  0.74450000  0.85950000  0.17270000  1.0
  H  H146  1  0.26100000  0.71140000  0.35370000  1.0
  H  H147  1  0.27620000  0.56060000  0.22750000  1.0
  H  H148  1  0.32450000  0.49460000  0.30450000  1.0
  H  H149  1  0.34100000  0.53700000  0.40610000  1.0
  H  H150  1  0.21940000  0.67290000  0.19580000  1.0
  H  H151  1  0.24190000  0.73750000  0.23440000  1.0
  H  H152  1  0.19110000  0.69840000  0.25360000  1.0
  H  H153  1  0.98020000  0.72230000  0.96770000  1.0
  H  H154  1  0.06700000  0.89670000  0.99340000  1.0
  H  H155  1  0.10490000  0.85730000  0.08990000  1.0
  H  H156  1  0.08140000  0.75140000  0.12440000  1.0
  H  H157  1  0.00230000  0.88780000  0.89970000  1.0
  H  H158  1  0.99440000  0.81160000  0.87520000  1.0
  H  H159  1  0.95100000  0.84590000  0.91310000  1.0
  H  H160  1  0.43730000  0.27810000  0.15880000  1.0
  H  H161  1  0.41460000  0.39180000  0.00400000  1.0
  H  H162  1  0.46300000  0.48110000  0.05250000  1.0
  H  H163  1  0.49440000  0.47170000  0.15820000  1.0
  H  H164  1  0.37990000  0.27870000  0.99970000  1.0
  H  H165  1  0.41380000  0.22600000  0.04310000  1.0
  H  H166  1  0.35980000  0.25550000  0.06340000  1.0
  H  H167  1  0.40540000  0.75670000  0.39370000  1.0
  H  H168  1  0.38630000  0.86120000  0.44290000  1.0
  H  H169  1  0.43270000  0.89180000  0.53450000  1.0
  H  H170  1  0.51390000  0.71310000  0.53980000  1.0
  H  H171  1  0.50160000  0.87530000  0.61770000  1.0
  H  H172  1  0.51160000  0.79820000  0.63830000  1.0
  H  H173  1  0.55040000  0.83440000  0.59560000  1.0
  H  H174  1  0.35250000  0.45290000  0.20620000  1.0
  H  H175  1  0.27200000  0.34960000  0.06350000  1.0
  H  H176  1  0.27280000  0.44490000  0.00140000  1.0
  H  H177  1  0.31110000  0.54590000  0.03990000  1.0
  H  H178  1  0.29530000  0.28980000  0.16430000  1.0
  H  H179  1  0.34960000  0.31700000  0.19910000  1.0
  H  H180  1  0.29460000  0.34010000  0.22160000  1.0
  H  H181  1  0.12590000  0.46120000  0.02070000  1.0
  H  H182  1  0.17080000  0.39480000  0.19320000  1.0
  H  H183  1  0.18910000  0.50940000  0.22460000  1.0
  H  H184  1  0.18820000  0.59360000  0.15090000  1.0
  H  H185  1  0.11860000  0.34070000  0.04010000  1.0
  H  H186  1  0.16410000  0.31450000  0.09040000  1.0
  H  H187  1  0.10560000  0.32530000  0.10880000  1.0
  H  H188  1  0.98890000  0.54110000  0.66190000  1.0
  H  H189  1  0.95610000  0.52890000  0.55600000  1.0
  H  H190  1  0.90130000  0.61040000  0.50780000  1.0
  H  H191  1  0.90920000  0.71950000  0.66430000  1.0
  H  H192  1  0.85150000  0.70620000  0.50290000  1.0
  H  H193  1  0.82850000  0.72650000  0.56570000  1.0
  H  H194  1  0.87860000  0.76570000  0.54480000  1.0
  H  H195  1  0.81440000  0.42190000  0.53560000  1.0
  H  H196  1  0.76070000  0.50940000  0.49360000  1.0
  H  H197  1  0.74770000  0.60680000  0.55240000  1.0
  H  H198  1  0.84210000  0.52990000  0.69450000  1.0
  H  H199  1  0.80190000  0.63340000  0.70930000  1.0
  H  H200  1  0.79360000  0.67930000  0.64880000  1.0
  H  H201  1  0.74450000  0.64050000  0.67270000  1.0
  H  H202  1  0.26100000  0.78860000  0.85370000  1.0
  H  H203  1  0.27620000  0.93940000  0.72750000  1.0
  H  H204  1  0.32450000  0.00540000  0.80450000  1.0
  H  H205  1  0.34100000  0.96300000  0.90610000  1.0
  H  H206  1  0.21940000  0.82710000  0.69580000  1.0
  H  H207  1  0.24190000  0.76250000  0.73440000  1.0
  H  H208  1  0.19110000  0.80160000  0.75360000  1.0
  H  H209  1  0.98020000  0.77770000  0.46770000  1.0
  H  H210  1  0.06700000  0.60330000  0.49340000  1.0
  H  H211  1  0.10490000  0.64270000  0.58990000  1.0
  H  H212  1  0.08140000  0.74860000  0.62440000  1.0
  H  H213  1  0.00230000  0.61220000  0.39970000  1.0
  H  H214  1  0.99440000  0.68840000  0.37520000  1.0
  H  H215  1  0.95100000  0.65410000  0.41310000  1.0
  H  H216  1  0.56270000  0.77810000  0.34120000  1.0
  H  H217  1  0.58540000  0.89180000  0.49600000  1.0
  H  H218  1  0.53700000  0.98110000  0.44750000  1.0
  H  H219  1  0.50560000  0.97170000  0.34180000  1.0
  H  H220  1  0.62010000  0.77870000  0.50030000  1.0
  H  H221  1  0.58620000  0.72600000  0.45690000  1.0
  H  H222  1  0.64020000  0.75550000  0.43660000  1.0
  H  H223  1  0.59460000  0.25670000  0.10630000  1.0
  H  H224  1  0.61370000  0.36120000  0.05710000  1.0
  H  H225  1  0.56730000  0.39180000  0.96550000  1.0
  H  H226  1  0.48610000  0.21310000  0.96020000  1.0
  H  H227  1  0.49840000  0.37530000  0.88230000  1.0
  H  H228  1  0.48840000  0.29820000  0.86170000  1.0
  H  H229  1  0.44960000  0.33440000  0.90440000  1.0
  H  H230  1  0.64750000  0.95290000  0.29380000  1.0
  H  H231  1  0.72800000  0.84960000  0.43650000  1.0
  H  H232  1  0.72720000  0.94490000  0.49860000  1.0
  H  H233  1  0.68890000  0.04590000  0.46010000  1.0
  H  H234  1  0.70470000  0.78980000  0.33570000  1.0
  H  H235  1  0.65040000  0.81700000  0.30090000  1.0
  H  H236  1  0.70540000  0.84010000  0.27840000  1.0
  H  H237  1  0.87410000  0.96120000  0.47930000  1.0
  H  H238  1  0.82920000  0.89480000  0.30680000  1.0
  H  H239  1  0.81090000  0.00940000  0.27540000  1.0
  H  H240  1  0.81180000  0.09360000  0.34910000  1.0
  H  H241  1  0.88140000  0.84070000  0.45990000  1.0
  H  H242  1  0.83590000  0.81450000  0.40960000  1.0
  H  H243  1  0.89440000  0.82530000  0.39120000  1.0
  H  H244  1  0.01110000  0.04110000  0.83810000  1.0
  H  H245  1  0.04390000  0.02890000  0.94400000  1.0
  H  H246  1  0.09870000  0.11040000  0.99220000  1.0
  H  H247  1  0.09080000  0.21950000  0.83570000  1.0
  H  H248  1  0.14850000  0.20620000  0.99710000  1.0
  H  H249  1  0.17150000  0.22650000  0.93430000  1.0
  H  H250  1  0.12140000  0.26570000  0.95520000  1.0
  H  H251  1  0.18560000  0.92190000  0.96440000  1.0
  H  H252  1  0.23930000  0.00940000  0.00640000  1.0
  H  H253  1  0.25230000  0.10680000  0.94760000  1.0
  H  H254  1  0.15790000  0.02990000  0.80550000  1.0
  H  H255  1  0.19810000  0.13340000  0.79070000  1.0
  H  H256  1  0.20640000  0.17930000  0.85120000  1.0
  H  H257  1  0.25550000  0.14050000  0.82730000  1.0
  H  H258  1  0.73900000  0.28860000  0.64630000  1.0
  H  H259  1  0.72380000  0.43940000  0.77250000  1.0
  H  H260  1  0.67550000  0.50540000  0.69550000  1.0
  H  H261  1  0.65900000  0.46300000  0.59390000  1.0
  H  H262  1  0.78060000  0.32710000  0.80420000  1.0
  H  H263  1  0.75810000  0.26250000  0.76560000  1.0
  H  H264  1  0.80890000  0.30160000  0.74640000  1.0
  H  H265  1  0.01980000  0.27770000  0.03230000  1.0
  H  H266  1  0.93300000  0.10330000  0.00660000  1.0
  H  H267  1  0.89510000  0.14270000  0.91010000  1.0
  H  H268  1  0.91860000  0.24860000  0.87560000  1.0
  H  H269  1  0.99770000  0.11220000  0.10030000  1.0
  H  H270  1  0.00560000  0.18840000  0.12480000  1.0
  H  H271  1  0.04900000  0.15410000  0.08690000  1.0
  C  C272  1  0.51400000  0.63360000  0.76380000  1.0
  C  C273  1  0.53280000  0.62590000  0.82960000  1.0
  C  C274  1  0.55870000  0.68030000  0.86210000  1.0
  C  C275  1  0.57860000  0.67470000  0.92440000  1.0
  C  C276  1  0.57110000  0.61330000  0.95440000  1.0
  C  C277  1  0.54310000  0.55900000  0.92530000  1.0
  C  C278  1  0.52410000  0.56490000  0.86230000  1.0
  C  C279  1  0.60910000  0.73410000  0.95760000  1.0
  C  C280  1  0.52990000  0.34350000  0.56700000  1.0
  C  C281  1  0.53910000  0.27690000  0.53780000  1.0
  C  C282  1  0.57660000  0.23190000  0.56750000  1.0
  C  C283  1  0.58750000  0.16830000  0.53820000  1.0
  C  C284  1  0.56010000  0.15050000  0.48350000  1.0
  C  C285  1  0.52140000  0.19320000  0.45310000  1.0
  C  C286  1  0.51150000  0.25710000  0.48050000  1.0
  C  C287  1  0.48620000  0.16910000  0.39500000  1.0
  C  C288  1  0.64130000  0.42550000  0.84720000  1.0
  C  C289  1  0.66500000  0.49040000  0.87320000  1.0
  C  C290  1  0.66430000  0.54890000  0.83470000  1.0
  C  C291  1  0.68900000  0.61070000  0.85790000  1.0
  C  C292  1  0.71180000  0.61020000  0.91980000  1.0
  C  C293  1  0.71160000  0.55300000  0.95720000  1.0
  C  C294  1  0.68870000  0.49310000  0.93460000  1.0
  C  C295  1  0.68720000  0.67140000  0.81430000  1.0
  C  C296  1  0.84920000  0.40370000  0.96480000  1.0
  C  C297  1  0.84430000  0.46080000  0.92020000  1.0
  C  C298  1  0.85970000  0.53060000  0.93810000  1.0
  C  C299  1  0.85420000  0.58420000  0.89820000  1.0
  C  C300  1  0.83410000  0.56950000  0.83600000  1.0
  C  C301  1  0.82130000  0.50080000  0.81740000  1.0
  C  C302  1  0.82430000  0.45030000  0.86090000  1.0
  C  C303  1  0.86770000  0.65750000  0.91630000  1.0
  C  C304  1  0.03290000  0.36140000  0.25770000  1.0
  C  C305  1  0.05000000  0.36950000  0.32540000  1.0
  C  C306  1  0.03420000  0.42600000  0.35790000  1.0
  C  C307  1  0.05370000  0.43290000  0.42130000  1.0
  C  C308  1  0.08680000  0.38440000  0.44980000  1.0
  C  C309  1  0.10240000  0.33030000  0.41970000  1.0
  C  C310  1  0.08220000  0.32060000  0.35650000  1.0
  C  C311  1  0.13930000  0.27820000  0.45480000  1.0
  C  C312  1  0.13680000  0.59290000  0.35040000  1.0
  C  C313  1  0.16720000  0.53480000  0.38030000  1.0
  C  C314  1  0.19110000  0.53920000  0.44040000  1.0
  C  C315  1  0.22280000  0.48710000  0.46550000  1.0
  C  C316  1  0.23050000  0.42870000  0.43010000  1.0
  C  C317  1  0.20690000  0.42230000  0.37010000  1.0
  C  C318  1  0.17510000  0.47440000  0.34600000  1.0
  C  C319  1  0.21770000  0.36200000  0.33150000  1.0
  C  C320  1  0.68210000  0.15240000  0.04280000  1.0
  C  C321  1  0.69730000  0.12840000  0.11010000  1.0
  C  C322  1  0.72620000  0.16790000  0.15620000  1.0
  C  C323  1  0.73610000  0.14260000  0.21710000  1.0
  C  C324  1  0.71710000  0.07760000  0.23180000  1.0
  C  C325  1  0.68820000  0.03800000  0.18570000  1.0
  C  C326  1  0.67830000  0.06340000  0.12480000  1.0
  C  C327  1  0.77490000  0.19300000  0.26310000  1.0
  C  C328  1  0.98520000  0.15830000  0.42540000  1.0
  C  C329  1  0.97230000  0.22800000  0.44870000  1.0
  C  C330  1  0.99560000  0.25020000  0.50790000  1.0
  C  C331  1  0.98130000  0.31560000  0.52930000  1.0
  C  C332  1  0.94330000  0.35380000  0.49220000  1.0
  C  C333  1  0.92010000  0.33040000  0.43440000  1.0
  C  C334  1  0.93450000  0.26790000  0.41390000  1.0
  C  C335  1  0.01120000  0.34280000  0.59120000  1.0
  C  C336  1  0.48600000  0.13360000  0.73620000  1.0
  C  C337  1  0.46720000  0.12590000  0.67040000  1.0
  C  C338  1  0.44130000  0.18030000  0.63790000  1.0
  C  C339  1  0.42140000  0.17470000  0.57560000  1.0
  C  C340  1  0.42890000  0.11330000  0.54560000  1.0
  C  C341  1  0.45690000  0.05900000  0.57470000  1.0
  C  C342  1  0.47590000  0.06490000  0.63770000  1.0
  C  C343  1  0.39090000  0.23410000  0.54240000  1.0
  C  C344  1  0.47010000  0.84350000  0.93300000  1.0
  C  C345  1  0.46090000  0.77690000  0.96220000  1.0
  C  C346  1  0.42340000  0.73190000  0.93250000  1.0
  C  C347  1  0.41250000  0.66830000  0.96180000  1.0
  C  C348  1  0.43990000  0.65050000  0.01650000  1.0
  C  C349  1  0.47860000  0.69320000  0.04690000  1.0
  C  C350  1  0.48850000  0.75710000  0.01950000  1.0
  C  C351  1  0.51380000  0.66910000  0.10500000  1.0
  C  C352  1  0.35870000  0.92550000  0.65280000  1.0
  C  C353  1  0.33500000  0.99040000  0.62680000  1.0
  C  C354  1  0.33570000  0.04890000  0.66530000  1.0
  C  C355  1  0.31100000  0.11070000  0.64210000  1.0
  C  C356  1  0.28820000  0.11020000  0.58020000  1.0
  C  C357  1  0.28840000  0.05300000  0.54280000  1.0
  C  C358  1  0.31130000  0.99310000  0.56540000  1.0
  C  C359  1  0.31280000  0.17140000  0.68570000  1.0
  C  C360  1  0.15080000  0.90370000  0.53520000  1.0
  C  C361  1  0.15570000  0.96080000  0.57980000  1.0
  C  C362  1  0.14030000  0.03060000  0.56190000  1.0
  C  C363  1  0.14580000  0.08420000  0.60180000  1.0
  C  C364  1  0.16590000  0.06950000  0.66400000  1.0
  C  C365  1  0.17870000  0.00080000  0.68260000  1.0
  C  C366  1  0.17570000  0.95030000  0.63910000  1.0
  C  C367  1  0.13230000  0.15750000  0.58370000  1.0
  C  C368  1  0.96710000  0.86140000  0.24230000  1.0
  C  C369  1  0.95000000  0.86950000  0.17460000  1.0
  C  C370  1  0.96580000  0.92600000  0.14210000  1.0
  C  C371  1  0.94630000  0.93290000  0.07870000  1.0
  C  C372  1  0.91320000  0.88440000  0.05020000  1.0
  C  C373  1  0.89760000  0.83030000  0.08030000  1.0
  C  C374  1  0.91780000  0.82060000  0.14350000  1.0
  C  C375  1  0.86070000  0.77820000  0.04520000  1.0
  C  C376  1  0.86320000  0.09290000  0.14960000  1.0
  C  C377  1  0.83280000  0.03480000  0.11970000  1.0
  C  C378  1  0.80890000  0.03920000  0.05960000  1.0
  C  C379  1  0.77720000  0.98710000  0.03450000  1.0
  C  C380  1  0.76950000  0.92870000  0.06990000  1.0
  C  C381  1  0.79310000  0.92230000  0.12990000  1.0
  C  C382  1  0.82490000  0.97440000  0.15400000  1.0
  C  C383  1  0.78230000  0.86200000  0.16850000  1.0
  C  C384  1  0.31790000  0.65240000  0.45720000  1.0
  C  C385  1  0.30270000  0.62840000  0.38990000  1.0
  C  C386  1  0.27380000  0.66790000  0.34380000  1.0
  C  C387  1  0.26390000  0.64260000  0.28290000  1.0
  C  C388  1  0.28290000  0.57760000  0.26820000  1.0
  C  C389  1  0.31180000  0.53800000  0.31430000  1.0
  C  C390  1  0.32170000  0.56340000  0.37520000  1.0
  C  C391  1  0.22510000  0.69300000  0.23690000  1.0
  C  C392  1  0.01480000  0.65830000  0.07460000  1.0
  C  C393  1  0.02770000  0.72800000  0.05130000  1.0
  C  C394  1  0.00440000  0.75020000  0.99210000  1.0
  C  C395  1  0.01870000  0.81560000  0.97070000  1.0
  C  C396  1  0.05670000  0.85380000  0.00780000  1.0
  C  C397  1  0.07990000  0.83040000  0.06560000  1.0
  C  C398  1  0.06550000  0.76790000  0.08610000  1.0
  C  C399  1  0.98880000  0.84280000  0.90880000  1.0
  C  C400  1  0.48600000  0.36640000  0.23620000  1.0
  C  C401  1  0.46720000  0.37410000  0.17040000  1.0
  C  C402  1  0.44130000  0.31970000  0.13790000  1.0
  C  C403  1  0.42140000  0.32530000  0.07560000  1.0
  C  C404  1  0.42890000  0.38670000  0.04560000  1.0
  C  C405  1  0.45690000  0.44100000  0.07470000  1.0
  C  C406  1  0.47590000  0.43510000  0.13770000  1.0
  C  C407  1  0.39090000  0.26590000  0.04240000  1.0
  C  C408  1  0.47010000  0.65650000  0.43300000  1.0
  C  C409  1  0.46090000  0.72310000  0.46220000  1.0
  C  C410  1  0.42340000  0.76810000  0.43250000  1.0
  C  C411  1  0.41250000  0.83170000  0.46180000  1.0
  C  C412  1  0.43990000  0.84950000  0.51650000  1.0
  C  C413  1  0.47860000  0.80680000  0.54690000  1.0
  C  C414  1  0.48850000  0.74290000  0.51950000  1.0
  C  C415  1  0.51380000  0.83090000  0.60500000  1.0
  C  C416  1  0.35870000  0.57450000  0.15280000  1.0
  C  C417  1  0.33500000  0.50960000  0.12680000  1.0
  C  C418  1  0.33570000  0.45110000  0.16530000  1.0
  C  C419  1  0.31100000  0.38930000  0.14210000  1.0
  C  C420  1  0.28820000  0.38980000  0.08020000  1.0
  C  C421  1  0.28840000  0.44700000  0.04280000  1.0
  C  C422  1  0.31130000  0.50690000  0.06540000  1.0
  C  C423  1  0.31280000  0.32860000  0.18570000  1.0
  C  C424  1  0.15080000  0.59630000  0.03520000  1.0
  C  C425  1  0.15570000  0.53920000  0.07980000  1.0
  C  C426  1  0.14030000  0.46940000  0.06190000  1.0
  C  C427  1  0.14580000  0.41580000  0.10180000  1.0
  C  C428  1  0.16590000  0.43050000  0.16400000  1.0
  C  C429  1  0.17870000  0.49920000  0.18260000  1.0
  C  C430  1  0.17570000  0.54970000  0.13910000  1.0
  C  C431  1  0.13230000  0.34250000  0.08370000  1.0
  C  C432  1  0.96710000  0.63860000  0.74230000  1.0
  C  C433  1  0.95000000  0.63050000  0.67460000  1.0
  C  C434  1  0.96580000  0.57400000  0.64210000  1.0
  C  C435  1  0.94630000  0.56710000  0.57870000  1.0
  C  C436  1  0.91320000  0.61560000  0.55020000  1.0
  C  C437  1  0.89760000  0.66970000  0.58030000  1.0
  C  C438  1  0.91780000  0.67940000  0.64350000  1.0
  C  C439  1  0.86070000  0.72180000  0.54520000  1.0
  C  C440  1  0.86320000  0.40710000  0.64960000  1.0
  C  C441  1  0.83280000  0.46520000  0.61970000  1.0
  C  C442  1  0.80890000  0.46080000  0.55960000  1.0
  C  C443  1  0.77720000  0.51290000  0.53450000  1.0
  C  C444  1  0.76950000  0.57130000  0.56990000  1.0
  C  C445  1  0.79310000  0.57770000  0.62990000  1.0
  C  C446  1  0.82490000  0.52560000  0.65400000  1.0
  C  C447  1  0.78230000  0.63800000  0.66850000  1.0
  C  C448  1  0.31790000  0.84760000  0.95720000  1.0
  C  C449  1  0.30270000  0.87160000  0.88990000  1.0
  C  C450  1  0.27380000  0.83210000  0.84380000  1.0
  C  C451  1  0.26390000  0.85740000  0.78290000  1.0
  C  C452  1  0.28290000  0.92240000  0.76820000  1.0
  C  C453  1  0.31180000  0.96200000  0.81430000  1.0
  C  C454  1  0.32170000  0.93660000  0.87520000  1.0
  C  C455  1  0.22510000  0.80700000  0.73690000  1.0
  C  C456  1  0.01480000  0.84170000  0.57460000  1.0
  C  C457  1  0.02770000  0.77200000  0.55130000  1.0
  C  C458  1  0.00440000  0.74980000  0.49210000  1.0
  C  C459  1  0.01870000  0.68440000  0.47070000  1.0
  C  C460  1  0.05670000  0.64620000  0.50780000  1.0
  C  C461  1  0.07990000  0.66960000  0.56560000  1.0
  C  C462  1  0.06550000  0.73210000  0.58610000  1.0
  C  C463  1  0.98880000  0.65720000  0.40880000  1.0
  C  C464  1  0.51400000  0.86640000  0.26380000  1.0
  C  C465  1  0.53280000  0.87410000  0.32960000  1.0
  C  C466  1  0.55870000  0.81970000  0.36210000  1.0
  C  C467  1  0.57860000  0.82530000  0.42440000  1.0
  C  C468  1  0.57110000  0.88670000  0.45440000  1.0
  C  C469  1  0.54310000  0.94100000  0.42530000  1.0
  C  C470  1  0.52410000  0.93510000  0.36230000  1.0
  C  C471  1  0.60910000  0.76590000  0.45760000  1.0
  C  C472  1  0.52990000  0.15650000  0.06700000  1.0
  C  C473  1  0.53910000  0.22310000  0.03780000  1.0
  C  C474  1  0.57660000  0.26810000  0.06750000  1.0
  C  C475  1  0.58750000  0.33170000  0.03820000  1.0
  C  C476  1  0.56010000  0.34950000  0.98350000  1.0
  C  C477  1  0.52140000  0.30680000  0.95310000  1.0
  C  C478  1  0.51150000  0.24290000  0.98050000  1.0
  C  C479  1  0.48620000  0.33090000  0.89500000  1.0
  C  C480  1  0.64130000  0.07450000  0.34720000  1.0
  C  C481  1  0.66500000  0.00960000  0.37320000  1.0
  C  C482  1  0.66430000  0.95110000  0.33470000  1.0
  C  C483  1  0.68900000  0.88930000  0.35790000  1.0
  C  C484  1  0.71180000  0.88980000  0.41980000  1.0
  C  C485  1  0.71160000  0.94700000  0.45720000  1.0
  C  C486  1  0.68870000  0.00690000  0.43460000  1.0
  C  C487  1  0.68720000  0.82860000  0.31430000  1.0
  C  C488  1  0.84920000  0.09630000  0.46480000  1.0
  C  C489  1  0.84430000  0.03920000  0.42020000  1.0
  C  C490  1  0.85970000  0.96940000  0.43810000  1.0
  C  C491  1  0.85420000  0.91580000  0.39820000  1.0
  C  C492  1  0.83410000  0.93050000  0.33600000  1.0
  C  C493  1  0.82130000  0.99920000  0.31740000  1.0
  C  C494  1  0.82430000  0.04970000  0.36090000  1.0
  C  C495  1  0.86770000  0.84250000  0.41630000  1.0
  C  C496  1  0.03290000  0.13860000  0.75770000  1.0
  C  C497  1  0.05000000  0.13050000  0.82540000  1.0
  C  C498  1  0.03420000  0.07400000  0.85790000  1.0
  C  C499  1  0.05370000  0.06710000  0.92130000  1.0
  C  C500  1  0.08680000  0.11560000  0.94980000  1.0
  C  C501  1  0.10240000  0.16970000  0.91970000  1.0
  C  C502  1  0.08220000  0.17940000  0.85650000  1.0
  C  C503  1  0.13930000  0.22180000  0.95480000  1.0
  C  C504  1  0.13680000  0.90710000  0.85040000  1.0
  C  C505  1  0.16720000  0.96520000  0.88030000  1.0
  C  C506  1  0.19110000  0.96080000  0.94040000  1.0
  C  C507  1  0.22280000  0.01290000  0.96550000  1.0
  C  C508  1  0.23050000  0.07130000  0.93010000  1.0
  C  C509  1  0.20690000  0.07770000  0.87010000  1.0
  C  C510  1  0.17510000  0.02560000  0.84600000  1.0
  C  C511  1  0.21770000  0.13800000  0.83150000  1.0
  C  C512  1  0.68210000  0.34760000  0.54280000  1.0
  C  C513  1  0.69730000  0.37160000  0.61010000  1.0
  C  C514  1  0.72620000  0.33210000  0.65620000  1.0
  C  C515  1  0.73610000  0.35740000  0.71710000  1.0
  C  C516  1  0.71710000  0.42240000  0.73180000  1.0
  C  C517  1  0.68820000  0.46200000  0.68570000  1.0
  C  C518  1  0.67830000  0.43660000  0.62480000  1.0
  C  C519  1  0.77490000  0.30700000  0.76310000  1.0
  C  C520  1  0.98520000  0.34170000  0.92540000  1.0
  C  C521  1  0.97230000  0.27200000  0.94870000  1.0
  C  C522  1  0.99560000  0.24980000  0.00790000  1.0
  C  C523  1  0.98130000  0.18440000  0.02930000  1.0
  C  C524  1  0.94330000  0.14620000  0.99220000  1.0
  C  C525  1  0.92010000  0.16960000  0.93440000  1.0
  C  C526  1  0.93450000  0.23210000  0.91390000  1.0
  C  C527  1  0.01120000  0.15720000  0.09120000  1.0
  N  N528  1  0.49000000  0.68920000  0.73820000  1.0
  N  N529  1  0.47890000  0.67520000  0.67640000  1.0
  N  N530  1  0.49680000  0.61420000  0.66500000  1.0
  N  N531  1  0.51880000  0.58540000  0.71920000  1.0
  N  N532  1  0.52020000  0.40320000  0.53520000  1.0
  N  N533  1  0.51740000  0.45130000  0.58100000  1.0
  N  N534  1  0.52570000  0.42230000  0.63540000  1.0
  N  N535  1  0.53380000  0.35350000  0.62940000  1.0
  N  N536  1  0.60160000  0.41770000  0.80080000  1.0
  N  N537  1  0.59400000  0.34890000  0.79380000  1.0
  N  N538  1  0.62770000  0.31530000  0.83370000  1.0
  N  N539  1  0.65890000  0.36200000  0.86810000  1.0
  N  N540  1  0.81950000  0.34870000  0.95990000  1.0
  N  N541  1  0.83830000  0.30830000  0.00780000  1.0
  N  N542  1  0.87830000  0.34080000  0.04000000  1.0
  N  N543  1  0.88690000  0.39950000  0.01440000  1.0
  N  N544  1  0.03420000  0.41090000  0.21640000  1.0
  N  N545  1  0.01490000  0.38300000  0.16140000  1.0
  N  N546  1  0.00350000  0.31810000  0.17020000  1.0
  N  N547  1  0.01470000  0.30220000  0.23240000  1.0
  N  N548  1  0.14280000  0.65660000  0.37380000  1.0
  N  N549  1  0.10930000  0.69710000  0.33590000  1.0
  N  N550  1  0.08540000  0.65820000  0.29080000  1.0
  N  N551  1  0.10200000  0.59410000  0.29930000  1.0
  N  N552  1  0.64040000  0.14850000  0.00030000  1.0
  N  N553  1  0.64880000  0.19640000  0.95860000  1.0
  N  N554  1  0.69350000  0.22630000  0.97490000  1.0
  N  N555  1  0.71650000  0.19920000  0.02840000  1.0
  N  N556  1  0.00040000  0.10380000  0.46080000  1.0
  N  N557  1  0.00530000  0.05140000  0.41850000  1.0
  N  N558  1  0.99530000  0.07500000  0.36250000  1.0
  N  N559  1  0.98310000  0.14340000  0.36410000  1.0
  N  N560  1  0.51000000  0.18920000  0.76180000  1.0
  N  N561  1  0.52110000  0.17520000  0.82360000  1.0
  N  N562  1  0.50320000  0.11420000  0.83500000  1.0
  N  N563  1  0.48120000  0.08540000  0.78080000  1.0
  N  N564  1  0.47980000  0.90320000  0.96480000  1.0
  N  N565  1  0.48260000  0.95130000  0.91900000  1.0
  N  N566  1  0.47430000  0.92230000  0.86460000  1.0
  N  N567  1  0.46620000  0.85350000  0.87060000  1.0
  N  N568  1  0.39840000  0.91770000  0.69920000  1.0
  N  N569  1  0.40600000  0.84890000  0.70620000  1.0
  N  N570  1  0.37230000  0.81530000  0.66630000  1.0
  N  N571  1  0.34110000  0.86200000  0.63190000  1.0
  N  N572  1  0.18050000  0.84870000  0.54010000  1.0
  N  N573  1  0.16170000  0.80830000  0.49220000  1.0
  N  N574  1  0.12170000  0.84080000  0.46000000  1.0
  N  N575  1  0.11310000  0.89950000  0.48560000  1.0
  N  N576  1  0.96580000  0.91090000  0.28360000  1.0
  N  N577  1  0.98510000  0.88300000  0.33860000  1.0
  N  N578  1  0.99650000  0.81810000  0.32980000  1.0
  N  N579  1  0.98530000  0.80220000  0.26760000  1.0
  N  N580  1  0.85720000  0.15660000  0.12620000  1.0
  N  N581  1  0.89070000  0.19710000  0.16410000  1.0
  N  N582  1  0.91460000  0.15820000  0.20920000  1.0
  N  N583  1  0.89800000  0.09410000  0.20070000  1.0
  N  N584  1  0.35960000  0.64850000  0.49970000  1.0
  N  N585  1  0.35120000  0.69640000  0.54140000  1.0
  N  N586  1  0.30650000  0.72630000  0.52510000  1.0
  N  N587  1  0.28350000  0.69920000  0.47160000  1.0
  N  N588  1  0.99960000  0.60380000  0.03920000  1.0
  N  N589  1  0.99470000  0.55140000  0.08150000  1.0
  N  N590  1  0.00470000  0.57500000  0.13750000  1.0
  N  N591  1  0.01690000  0.64340000  0.13590000  1.0
  N  N592  1  0.51000000  0.31080000  0.26180000  1.0
  N  N593  1  0.52110000  0.32480000  0.32360000  1.0
  N  N594  1  0.50320000  0.38580000  0.33500000  1.0
  N  N595  1  0.48120000  0.41460000  0.28080000  1.0
  N  N596  1  0.47980000  0.59680000  0.46480000  1.0
  N  N597  1  0.48260000  0.54870000  0.41900000  1.0
  N  N598  1  0.47430000  0.57770000  0.36460000  1.0
  N  N599  1  0.46620000  0.64650000  0.37060000  1.0
  N  N600  1  0.39840000  0.58230000  0.19920000  1.0
  N  N601  1  0.40600000  0.65110000  0.20620000  1.0
  N  N602  1  0.37230000  0.68470000  0.16630000  1.0
  N  N603  1  0.34110000  0.63800000  0.13190000  1.0
  N  N604  1  0.18050000  0.65130000  0.04010000  1.0
  N  N605  1  0.16170000  0.69170000  0.99220000  1.0
  N  N606  1  0.12170000  0.65920000  0.96000000  1.0
  N  N607  1  0.11310000  0.60050000  0.98560000  1.0
  N  N608  1  0.96580000  0.58910000  0.78360000  1.0
  N  N609  1  0.98510000  0.61700000  0.83860000  1.0
  N  N610  1  0.99650000  0.68190000  0.82980000  1.0
  N  N611  1  0.98530000  0.69780000  0.76760000  1.0
  N  N612  1  0.85720000  0.34340000  0.62620000  1.0
  N  N613  1  0.89070000  0.30290000  0.66410000  1.0
  N  N614  1  0.91460000  0.34180000  0.70920000  1.0
  N  N615  1  0.89800000  0.40590000  0.70070000  1.0
  N  N616  1  0.35960000  0.85150000  0.99970000  1.0
  N  N617  1  0.35120000  0.80360000  0.04140000  1.0
  N  N618  1  0.30650000  0.77370000  0.02510000  1.0
  N  N619  1  0.28350000  0.80080000  0.97160000  1.0
  N  N620  1  0.99960000  0.89620000  0.53920000  1.0
  N  N621  1  0.99470000  0.94860000  0.58150000  1.0
  N  N622  1  0.00470000  0.92500000  0.63750000  1.0
  N  N623  1  0.01690000  0.85660000  0.63590000  1.0
  N  N624  1  0.49000000  0.81080000  0.23820000  1.0
  N  N625  1  0.47890000  0.82480000  0.17640000  1.0
  N  N626  1  0.49680000  0.88580000  0.16500000  1.0
  N  N627  1  0.51880000  0.91460000  0.21920000  1.0
  N  N628  1  0.52020000  0.09680000  0.03520000  1.0
  N  N629  1  0.51740000  0.04870000  0.08100000  1.0
  N  N630  1  0.52570000  0.07770000  0.13540000  1.0
  N  N631  1  0.53380000  0.14650000  0.12940000  1.0
  N  N632  1  0.60160000  0.08230000  0.30080000  1.0
  N  N633  1  0.59400000  0.15110000  0.29380000  1.0
  N  N634  1  0.62770000  0.18470000  0.33370000  1.0
  N  N635  1  0.65890000  0.13800000  0.36810000  1.0
  N  N636  1  0.81950000  0.15130000  0.45990000  1.0
  N  N637  1  0.83830000  0.19170000  0.50780000  1.0
  N  N638  1  0.87830000  0.15920000  0.54000000  1.0
  N  N639  1  0.88690000  0.10050000  0.51440000  1.0
  N  N640  1  0.03420000  0.08910000  0.71640000  1.0
  N  N641  1  0.01490000  0.11700000  0.66140000  1.0
  N  N642  1  0.00350000  0.18190000  0.67020000  1.0
  N  N643  1  0.01470000  0.19780000  0.73240000  1.0
  N  N644  1  0.14280000  0.84340000  0.87380000  1.0
  N  N645  1  0.10930000  0.80290000  0.83590000  1.0
  N  N646  1  0.08540000  0.84180000  0.79080000  1.0
  N  N647  1  0.10200000  0.90590000  0.79930000  1.0
  N  N648  1  0.64040000  0.35150000  0.50030000  1.0
  N  N649  1  0.64880000  0.30360000  0.45860000  1.0
  N  N650  1  0.69350000  0.27370000  0.47490000  1.0
  N  N651  1  0.71650000  0.30080000  0.52840000  1.0
  N  N652  1  0.00040000  0.39620000  0.96080000  1.0
  N  N653  1  0.00530000  0.44860000  0.91850000  1.0
  N  N654  1  0.99530000  0.42500000  0.86250000  1.0
  N  N655  1  0.98310000  0.35660000  0.86410000  1.0
