# generated using pymatgen
data_MnH8(C7O2)2
_symmetry_space_group_name_H-M   'P 1'
_cell_length_a   12.35100000
_cell_length_b   13.95800000
_cell_length_c   18.50700000
_cell_angle_alpha   90.00000000
_cell_angle_beta   90.00000000
_cell_angle_gamma   113.79000000
_symmetry_Int_Tables_number   1
_chemical_formula_structural   MnH8(C7O2)2
_chemical_formula_sum   'Mn6 H48 C84 O24'
_cell_volume   2919.42091092
_cell_formula_units_Z   6
loop_
 _symmetry_equiv_pos_site_id
 _symmetry_equiv_pos_as_xyz
  1  'x, y, z'
loop_
 _atom_site_type_symbol
 _atom_site_label
 _atom_site_symmetry_multiplicity
 _atom_site_fract_x
 _atom_site_fract_y
 _atom_site_fract_z
 _atom_site_occupancy
  Mn  Mn0  1  0.67721000  0.91508000  0.48099000  1.0
  Mn  Mn1  1  0.82279000  0.08492000  0.98099000  1.0
  Mn  Mn2  1  0.32279000  0.08492000  0.51901000  1.0
  Mn  Mn3  1  0.17721000  0.91508000  0.01901000  1.0
  Mn  Mn4  1  0.00000000  0.00000000  0.50000000  1.0
  Mn  Mn5  1  0.50000000  0.00000000  0.00000000  1.0
  H  H6  1  0.59820000  0.66210000  0.62770000  1.0
  H  H7  1  0.56510000  0.51230000  0.69330000  1.0
  H  H8  1  0.90940000  0.61990000  0.73930000  1.0
  H  H9  1  0.94310000  0.77240000  0.67670000  1.0
  H  H10  1  0.86290000  0.43520000  0.72970000  1.0
  H  H11  1  0.84310000  0.29350000  0.80120000  1.0
  H  H12  1  0.53530000  0.28460000  0.87670000  1.0
  H  H13  1  0.55780000  0.42860000  0.80810000  1.0
  H  H14  1  0.99850000  0.23090000  0.44810000  1.0
  H  H15  1  0.08520000  0.41070000  0.43830000  1.0
  H  H16  1  0.84690000  0.43130000  0.57630000  1.0
  H  H17  1  0.75560000  0.25120000  0.58280000  1.0
  H  H18  1  0.90180000  0.33790000  0.12770000  1.0
  H  H19  1  0.93490000  0.48770000  0.19330000  1.0
  H  H20  1  0.59060000  0.38010000  0.23930000  1.0
  H  H21  1  0.55690000  0.22760000  0.17670000  1.0
  H  H22  1  0.63710000  0.56480000  0.22970000  1.0
  H  H23  1  0.65690000  0.70650000  0.30120000  1.0
  H  H24  1  0.96470000  0.71540000  0.37670000  1.0
  H  H25  1  0.94220000  0.57140000  0.30810000  1.0
  H  H26  1  0.50150000  0.76910000  0.94810000  1.0
  H  H27  1  0.41480000  0.58930000  0.93830000  1.0
  H  H28  1  0.65310000  0.56870000  0.07630000  1.0
  H  H29  1  0.74440000  0.74880000  0.08280000  1.0
  H  H30  1  0.40180000  0.33790000  0.37230000  1.0
  H  H31  1  0.43490000  0.48770000  0.30670000  1.0
  H  H32  1  0.09060000  0.38010000  0.26070000  1.0
  H  H33  1  0.05690000  0.22760000  0.32330000  1.0
  H  H34  1  0.13710000  0.56480000  0.27030000  1.0
  H  H35  1  0.15690000  0.70650000  0.19880000  1.0
  H  H36  1  0.46470000  0.71540000  0.12330000  1.0
  H  H37  1  0.44220000  0.57140000  0.19190000  1.0
  H  H38  1  0.00150000  0.76910000  0.55190000  1.0
  H  H39  1  0.91480000  0.58930000  0.56170000  1.0
  H  H40  1  0.15310000  0.56870000  0.42370000  1.0
  H  H41  1  0.24440000  0.74880000  0.41720000  1.0
  H  H42  1  0.09820000  0.66210000  0.87230000  1.0
  H  H43  1  0.06510000  0.51230000  0.80670000  1.0
  H  H44  1  0.40940000  0.61990000  0.76070000  1.0
  H  H45  1  0.44310000  0.77240000  0.82330000  1.0
  H  H46  1  0.36290000  0.43520000  0.77030000  1.0
  H  H47  1  0.34310000  0.29350000  0.69880000  1.0
  H  H48  1  0.03530000  0.28460000  0.62330000  1.0
  H  H49  1  0.05780000  0.42860000  0.69190000  1.0
  H  H50  1  0.49850000  0.23090000  0.05190000  1.0
  H  H51  1  0.58520000  0.41070000  0.06170000  1.0
  H  H52  1  0.34690000  0.43130000  0.92370000  1.0
  H  H53  1  0.25560000  0.25120000  0.91720000  1.0
  C  C54  1  0.77410000  0.73260000  0.64390000  1.0
  C  C55  1  0.66150000  0.65410000  0.65000000  1.0
  C  C56  1  0.64170000  0.56340000  0.68910000  1.0
  C  C57  1  0.73460000  0.54800000  0.72200000  1.0
  C  C58  1  0.84620000  0.62780000  0.71670000  1.0
  C  C59  1  0.86710000  0.71980000  0.67870000  1.0
  C  C60  1  0.71440000  0.45010000  0.76280000  1.0
  C  C61  1  0.79790000  0.40630000  0.76020000  1.0
  C  C62  1  0.78530000  0.32030000  0.80250000  1.0
  C  C63  1  0.68640000  0.27370000  0.84710000  1.0
  C  C64  1  0.60220000  0.31530000  0.84790000  1.0
  C  C65  1  0.61580000  0.40200000  0.80650000  1.0
  C  C66  1  0.79570000  0.82730000  0.59640000  1.0
  C  C67  1  0.67520000  0.18240000  0.89550000  1.0
  C  C68  1  0.86730000  0.22260000  0.51530000  1.0
  C  C69  1  0.96630000  0.27110000  0.47300000  1.0
  C  C70  1  0.01850000  0.37920000  0.46710000  1.0
  C  C71  1  0.97220000  0.44150000  0.50400000  1.0
  C  C72  1  0.87610000  0.39130000  0.54880000  1.0
  C  C73  1  0.82200000  0.28300000  0.55370000  1.0
  C  C74  1  0.80600000  0.10610000  0.51600000  1.0
  C  C75  1  0.72590000  0.26740000  0.14390000  1.0
  C  C76  1  0.83850000  0.34590000  0.15000000  1.0
  C  C77  1  0.85830000  0.43660000  0.18910000  1.0
  C  C78  1  0.76540000  0.45200000  0.22200000  1.0
  C  C79  1  0.65380000  0.37220000  0.21670000  1.0
  C  C80  1  0.63290000  0.28020000  0.17870000  1.0
  C  C81  1  0.78560000  0.54990000  0.26280000  1.0
  C  C82  1  0.70210000  0.59370000  0.26020000  1.0
  C  C83  1  0.71470000  0.67970000  0.30250000  1.0
  C  C84  1  0.81360000  0.72630000  0.34710000  1.0
  C  C85  1  0.89780000  0.68470000  0.34790000  1.0
  C  C86  1  0.88420000  0.59800000  0.30650000  1.0
  C  C87  1  0.70430000  0.17270000  0.09640000  1.0
  C  C88  1  0.82480000  0.81760000  0.39550000  1.0
  C  C89  1  0.63270000  0.77740000  0.01530000  1.0
  C  C90  1  0.53370000  0.72890000  0.97300000  1.0
  C  C91  1  0.48150000  0.62080000  0.96710000  1.0
  C  C92  1  0.52780000  0.55850000  0.00400000  1.0
  C  C93  1  0.62390000  0.60870000  0.04880000  1.0
  C  C94  1  0.67800000  0.71700000  0.05370000  1.0
  C  C95  1  0.69400000  0.89390000  0.01600000  1.0
  C  C96  1  0.22590000  0.26740000  0.35610000  1.0
  C  C97  1  0.33850000  0.34590000  0.35000000  1.0
  C  C98  1  0.35830000  0.43660000  0.31090000  1.0
  C  C99  1  0.26540000  0.45200000  0.27800000  1.0
  C  C100  1  0.15380000  0.37220000  0.28330000  1.0
  C  C101  1  0.13290000  0.28020000  0.32130000  1.0
  C  C102  1  0.28560000  0.54990000  0.23720000  1.0
  C  C103  1  0.20210000  0.59370000  0.23980000  1.0
  C  C104  1  0.21470000  0.67970000  0.19750000  1.0
  C  C105  1  0.31360000  0.72630000  0.15290000  1.0
  C  C106  1  0.39780000  0.68470000  0.15210000  1.0
  C  C107  1  0.38420000  0.59800000  0.19350000  1.0
  C  C108  1  0.20430000  0.17270000  0.40360000  1.0
  C  C109  1  0.32480000  0.81760000  0.10450000  1.0
  C  C110  1  0.13270000  0.77740000  0.48470000  1.0
  C  C111  1  0.03370000  0.72890000  0.52700000  1.0
  C  C112  1  0.98150000  0.62080000  0.53290000  1.0
  C  C113  1  0.02780000  0.55850000  0.49600000  1.0
  C  C114  1  0.12390000  0.60870000  0.45120000  1.0
  C  C115  1  0.17800000  0.71700000  0.44630000  1.0
  C  C116  1  0.19400000  0.89390000  0.48400000  1.0
  C  C117  1  0.27410000  0.73260000  0.85610000  1.0
  C  C118  1  0.16150000  0.65410000  0.85000000  1.0
  C  C119  1  0.14170000  0.56340000  0.81090000  1.0
  C  C120  1  0.23460000  0.54800000  0.77800000  1.0
  C  C121  1  0.34620000  0.62780000  0.78330000  1.0
  C  C122  1  0.36710000  0.71980000  0.82130000  1.0
  C  C123  1  0.21440000  0.45010000  0.73720000  1.0
  C  C124  1  0.29790000  0.40630000  0.73980000  1.0
  C  C125  1  0.28530000  0.32030000  0.69750000  1.0
  C  C126  1  0.18640000  0.27370000  0.65290000  1.0
  C  C127  1  0.10220000  0.31530000  0.65210000  1.0
  C  C128  1  0.11580000  0.40200000  0.69350000  1.0
  C  C129  1  0.29570000  0.82730000  0.90360000  1.0
  C  C130  1  0.17520000  0.18240000  0.60450000  1.0
  C  C131  1  0.36730000  0.22260000  0.98470000  1.0
  C  C132  1  0.46630000  0.27110000  0.02700000  1.0
  C  C133  1  0.51850000  0.37920000  0.03290000  1.0
  C  C134  1  0.47220000  0.44150000  0.99600000  1.0
  C  C135  1  0.37610000  0.39130000  0.95120000  1.0
  C  C136  1  0.32200000  0.28300000  0.94630000  1.0
  C  C137  1  0.30600000  0.10610000  0.98400000  1.0
  O  O138  1  0.90100000  0.88870000  0.58510000  1.0
  O  O139  1  0.70550000  0.83590000  0.57250000  1.0
  O  O140  1  0.77070000  0.17190000  0.90620000  1.0
  O  O141  1  0.57650000  0.12690000  0.92040000  1.0
  O  O142  1  0.85630000  0.05210000  0.48590000  1.0
  O  O143  1  0.70310000  0.06240000  0.54090000  1.0
  O  O144  1  0.59900000  0.11130000  0.08510000  1.0
  O  O145  1  0.79450000  0.16410000  0.07250000  1.0
  O  O146  1  0.72930000  0.82810000  0.40620000  1.0
  O  O147  1  0.92350000  0.87310000  0.42040000  1.0
  O  O148  1  0.64370000  0.94790000  0.98590000  1.0
  O  O149  1  0.79690000  0.93760000  0.04090000  1.0
  O  O150  1  0.09900000  0.11130000  0.41490000  1.0
  O  O151  1  0.29450000  0.16410000  0.42750000  1.0
  O  O152  1  0.22930000  0.82810000  0.09380000  1.0
  O  O153  1  0.42350000  0.87310000  0.07960000  1.0
  O  O154  1  0.14370000  0.94790000  0.51410000  1.0
  O  O155  1  0.29690000  0.93760000  0.45910000  1.0
  O  O156  1  0.40100000  0.88870000  0.91490000  1.0
  O  O157  1  0.20550000  0.83590000  0.92750000  1.0
  O  O158  1  0.27070000  0.17190000  0.59380000  1.0
  O  O159  1  0.07650000  0.12690000  0.57960000  1.0
  O  O160  1  0.35630000  0.05210000  0.01410000  1.0
  O  O161  1  0.20310000  0.06240000  0.95910000  1.0
