# generated using pymatgen
data_CsU4P8H16C24O27F2
_symmetry_space_group_name_H-M   'P 1'
_cell_length_a   21.55540000
_cell_length_b   23.93670000
_cell_length_c   10.37870000
_cell_angle_alpha   90.00000000
_cell_angle_beta   99.83800000
_cell_angle_gamma   90.00000000
_symmetry_Int_Tables_number   1
_chemical_formula_structural   CsU4P8H16C24O27F2
_chemical_formula_sum   'Cs4 U16 P32 H64 C96 O108 F8'
_cell_volume   5276.30035886
_cell_formula_units_Z   4
loop_
 _symmetry_equiv_pos_site_id
 _symmetry_equiv_pos_as_xyz
  1  'x, y, z'
loop_
 _atom_site_type_symbol
 _atom_site_label
 _atom_site_symmetry_multiplicity
 _atom_site_fract_x
 _atom_site_fract_y
 _atom_site_fract_z
 _atom_site_occupancy
  Cs  Cs0  1  0.36121000  0.50000000  0.21283000  1.0
  Cs  Cs1  1  0.86121000  0.00000000  0.21283000  1.0
  Cs  Cs2  1  0.63879000  0.50000000  0.78717000  1.0
  Cs  Cs3  1  0.13879000  0.00000000  0.78717000  1.0
  U  U4  1  0.50983000  0.36662000  0.79295000  1.0
  U  U5  1  0.00983000  0.86662000  0.79295000  1.0
  U  U6  1  0.49017000  0.36662000  0.20705000  1.0
  U  U7  1  0.99017000  0.86662000  0.20705000  1.0
  U  U8  1  0.49017000  0.63338000  0.20705000  1.0
  U  U9  1  0.99017000  0.13338000  0.20705000  1.0
  U  U10  1  0.50983000  0.63338000  0.79295000  1.0
  U  U11  1  0.00983000  0.13338000  0.79295000  1.0
  U  U12  1  0.32762000  0.00000000  0.63185000  1.0
  U  U13  1  0.34215000  0.00000000  0.22100000  1.0
  U  U14  1  0.82762000  0.50000000  0.63185000  1.0
  U  U15  1  0.84215000  0.50000000  0.22100000  1.0
  U  U16  1  0.67238000  0.00000000  0.36815000  1.0
  U  U17  1  0.65785000  0.00000000  0.77900000  1.0
  U  U18  1  0.17238000  0.50000000  0.36815000  1.0
  U  U19  1  0.15785000  0.50000000  0.77900000  1.0
  P  P20  1  0.39800000  0.37160000  0.46940000  1.0
  P  P21  1  0.30710000  0.11714000  0.41190000  1.0
  P  P22  1  0.36500000  0.35076000  0.92750000  1.0
  P  P23  1  0.32600000  0.08541000  0.92930000  1.0
  P  P24  1  0.89800000  0.87160000  0.46940000  1.0
  P  P25  1  0.80710000  0.61714000  0.41190000  1.0
  P  P26  1  0.86500000  0.85076000  0.92750000  1.0
  P  P27  1  0.82600000  0.58541000  0.92930000  1.0
  P  P28  1  0.60200000  0.37160000  0.53060000  1.0
  P  P29  1  0.69290000  0.11714000  0.58810000  1.0
  P  P30  1  0.63500000  0.35076000  0.07250000  1.0
  P  P31  1  0.67400000  0.08541000  0.07070000  1.0
  P  P32  1  0.10200000  0.87160000  0.53060000  1.0
  P  P33  1  0.19290000  0.61714000  0.58810000  1.0
  P  P34  1  0.13500000  0.85076000  0.07250000  1.0
  P  P35  1  0.17400000  0.58541000  0.07070000  1.0
  P  P36  1  0.60200000  0.62840000  0.53060000  1.0
  P  P37  1  0.69290000  0.88286000  0.58810000  1.0
  P  P38  1  0.63500000  0.64924000  0.07250000  1.0
  P  P39  1  0.67400000  0.91459000  0.07070000  1.0
  P  P40  1  0.10200000  0.12840000  0.53060000  1.0
  P  P41  1  0.19290000  0.38286000  0.58810000  1.0
  P  P42  1  0.13500000  0.14924000  0.07250000  1.0
  P  P43  1  0.17400000  0.41459000  0.07070000  1.0
  P  P44  1  0.39800000  0.62840000  0.46940000  1.0
  P  P45  1  0.30710000  0.88286000  0.41190000  1.0
  P  P46  1  0.36500000  0.64924000  0.92750000  1.0
  P  P47  1  0.32600000  0.91459000  0.92930000  1.0
  P  P48  1  0.89800000  0.12840000  0.46940000  1.0
  P  P49  1  0.80710000  0.38286000  0.41190000  1.0
  P  P50  1  0.86500000  0.14924000  0.92750000  1.0
  P  P51  1  0.82600000  0.41459000  0.92930000  1.0
  H  H52  1  0.45170000  0.26440000  0.55210000  1.0
  H  H53  1  0.41870000  0.17370000  0.52650000  1.0
  H  H54  1  0.25210000  0.22520000  0.32500000  1.0
  H  H55  1  0.28490000  0.31650000  0.34910000  1.0
  H  H56  1  0.36690000  0.26310000  0.74190000  1.0
  H  H57  1  0.34780000  0.16610000  0.73840000  1.0
  H  H58  1  0.33300000  0.17210000  0.12240000  1.0
  H  H59  1  0.34080000  0.26860000  0.11720000  1.0
  H  H60  1  0.95170000  0.76440000  0.55210000  1.0
  H  H61  1  0.91870000  0.67370000  0.52650000  1.0
  H  H62  1  0.75210000  0.72520000  0.32500000  1.0
  H  H63  1  0.78490000  0.81650000  0.34910000  1.0
  H  H64  1  0.86690000  0.76310000  0.74190000  1.0
  H  H65  1  0.84780000  0.66610000  0.73840000  1.0
  H  H66  1  0.83300000  0.67210000  0.12240000  1.0
  H  H67  1  0.84080000  0.76860000  0.11720000  1.0
  H  H68  1  0.54830000  0.26440000  0.44790000  1.0
  H  H69  1  0.58130000  0.17370000  0.47350000  1.0
  H  H70  1  0.74790000  0.22520000  0.67500000  1.0
  H  H71  1  0.71510000  0.31650000  0.65090000  1.0
  H  H72  1  0.63310000  0.26310000  0.25810000  1.0
  H  H73  1  0.65220000  0.16610000  0.26160000  1.0
  H  H74  1  0.66700000  0.17210000  0.87760000  1.0
  H  H75  1  0.65920000  0.26860000  0.88280000  1.0
  H  H76  1  0.04830000  0.76440000  0.44790000  1.0
  H  H77  1  0.08130000  0.67370000  0.47350000  1.0
  H  H78  1  0.24790000  0.72520000  0.67500000  1.0
  H  H79  1  0.21510000  0.81650000  0.65090000  1.0
  H  H80  1  0.13310000  0.76310000  0.25810000  1.0
  H  H81  1  0.15220000  0.66610000  0.26160000  1.0
  H  H82  1  0.16700000  0.67210000  0.87760000  1.0
  H  H83  1  0.15920000  0.76860000  0.88280000  1.0
  H  H84  1  0.54830000  0.73560000  0.44790000  1.0
  H  H85  1  0.58130000  0.82630000  0.47350000  1.0
  H  H86  1  0.74790000  0.77480000  0.67500000  1.0
  H  H87  1  0.71510000  0.68350000  0.65090000  1.0
  H  H88  1  0.63310000  0.73690000  0.25810000  1.0
  H  H89  1  0.65220000  0.83390000  0.26160000  1.0
  H  H90  1  0.66700000  0.82790000  0.87760000  1.0
  H  H91  1  0.65920000  0.73140000  0.88280000  1.0
  H  H92  1  0.04830000  0.23560000  0.44790000  1.0
  H  H93  1  0.08130000  0.32630000  0.47350000  1.0
  H  H94  1  0.24790000  0.27480000  0.67500000  1.0
  H  H95  1  0.21510000  0.18350000  0.65090000  1.0
  H  H96  1  0.13310000  0.23690000  0.25810000  1.0
  H  H97  1  0.15220000  0.33390000  0.26160000  1.0
  H  H98  1  0.16700000  0.32790000  0.87760000  1.0
  H  H99  1  0.15920000  0.23140000  0.88280000  1.0
  H  H100  1  0.45170000  0.73560000  0.55210000  1.0
  H  H101  1  0.41870000  0.82630000  0.52650000  1.0
  H  H102  1  0.25210000  0.77480000  0.32500000  1.0
  H  H103  1  0.28490000  0.68350000  0.34910000  1.0
  H  H104  1  0.36690000  0.73690000  0.74190000  1.0
  H  H105  1  0.34780000  0.83390000  0.73840000  1.0
  H  H106  1  0.33300000  0.82790000  0.12240000  1.0
  H  H107  1  0.34080000  0.73140000  0.11720000  1.0
  H  H108  1  0.95170000  0.23560000  0.55210000  1.0
  H  H109  1  0.91870000  0.32630000  0.52650000  1.0
  H  H110  1  0.75210000  0.27480000  0.32500000  1.0
  H  H111  1  0.78490000  0.18350000  0.34910000  1.0
  H  H112  1  0.86690000  0.23690000  0.74190000  1.0
  H  H113  1  0.84780000  0.33390000  0.73840000  1.0
  H  H114  1  0.83300000  0.32790000  0.12240000  1.0
  H  H115  1  0.84080000  0.23140000  0.11720000  1.0
  C  C116  1  0.37320000  0.29980000  0.45310000  1.0
  C  C117  1  0.41080000  0.25660000  0.50520000  1.0
  C  C118  1  0.39100000  0.20280000  0.49110000  1.0
  C  C119  1  0.33180000  0.18920000  0.42720000  1.0
  C  C120  1  0.29280000  0.23330000  0.37220000  1.0
  C  C121  1  0.31220000  0.28730000  0.38540000  1.0
  C  C122  1  0.35440000  0.27610000  0.92870000  1.0
  C  C123  1  0.35770000  0.24500000  0.81800000  1.0
  C  C124  1  0.34760000  0.18690000  0.81620000  1.0
  C  C125  1  0.33710000  0.16000000  0.93060000  1.0
  C  C126  1  0.33730000  0.19050000  0.04320000  1.0
  C  C127  1  0.34370000  0.24780000  0.04060000  1.0
  C  C128  1  0.87320000  0.79980000  0.45310000  1.0
  C  C129  1  0.91080000  0.75660000  0.50520000  1.0
  C  C130  1  0.89100000  0.70280000  0.49110000  1.0
  C  C131  1  0.83180000  0.68920000  0.42720000  1.0
  C  C132  1  0.79280000  0.73330000  0.37220000  1.0
  C  C133  1  0.81220000  0.78730000  0.38540000  1.0
  C  C134  1  0.85440000  0.77610000  0.92870000  1.0
  C  C135  1  0.85770000  0.74500000  0.81800000  1.0
  C  C136  1  0.84760000  0.68690000  0.81620000  1.0
  C  C137  1  0.83710000  0.66000000  0.93060000  1.0
  C  C138  1  0.83730000  0.69050000  0.04320000  1.0
  C  C139  1  0.84370000  0.74780000  0.04060000  1.0
  C  C140  1  0.62680000  0.29980000  0.54690000  1.0
  C  C141  1  0.58920000  0.25660000  0.49480000  1.0
  C  C142  1  0.60900000  0.20280000  0.50890000  1.0
  C  C143  1  0.66820000  0.18920000  0.57280000  1.0
  C  C144  1  0.70720000  0.23330000  0.62780000  1.0
  C  C145  1  0.68780000  0.28730000  0.61460000  1.0
  C  C146  1  0.64560000  0.27610000  0.07130000  1.0
  C  C147  1  0.64230000  0.24500000  0.18200000  1.0
  C  C148  1  0.65240000  0.18690000  0.18380000  1.0
  C  C149  1  0.66290000  0.16000000  0.06940000  1.0
  C  C150  1  0.66270000  0.19050000  0.95680000  1.0
  C  C151  1  0.65630000  0.24780000  0.95940000  1.0
  C  C152  1  0.12680000  0.79980000  0.54690000  1.0
  C  C153  1  0.08920000  0.75660000  0.49480000  1.0
  C  C154  1  0.10900000  0.70280000  0.50890000  1.0
  C  C155  1  0.16820000  0.68920000  0.57280000  1.0
  C  C156  1  0.20720000  0.73330000  0.62780000  1.0
  C  C157  1  0.18780000  0.78730000  0.61460000  1.0
  C  C158  1  0.14560000  0.77610000  0.07130000  1.0
  C  C159  1  0.14230000  0.74500000  0.18200000  1.0
  C  C160  1  0.15240000  0.68690000  0.18380000  1.0
  C  C161  1  0.16290000  0.66000000  0.06940000  1.0
  C  C162  1  0.16270000  0.69050000  0.95680000  1.0
  C  C163  1  0.15630000  0.74780000  0.95940000  1.0
  C  C164  1  0.62680000  0.70020000  0.54690000  1.0
  C  C165  1  0.58920000  0.74340000  0.49480000  1.0
  C  C166  1  0.60900000  0.79720000  0.50890000  1.0
  C  C167  1  0.66820000  0.81080000  0.57280000  1.0
  C  C168  1  0.70720000  0.76670000  0.62780000  1.0
  C  C169  1  0.68780000  0.71270000  0.61460000  1.0
  C  C170  1  0.64560000  0.72390000  0.07130000  1.0
  C  C171  1  0.64230000  0.75500000  0.18200000  1.0
  C  C172  1  0.65240000  0.81310000  0.18380000  1.0
  C  C173  1  0.66290000  0.84000000  0.06940000  1.0
  C  C174  1  0.66270000  0.80950000  0.95680000  1.0
  C  C175  1  0.65630000  0.75220000  0.95940000  1.0
  C  C176  1  0.12680000  0.20020000  0.54690000  1.0
  C  C177  1  0.08920000  0.24340000  0.49480000  1.0
  C  C178  1  0.10900000  0.29720000  0.50890000  1.0
  C  C179  1  0.16820000  0.31080000  0.57280000  1.0
  C  C180  1  0.20720000  0.26670000  0.62780000  1.0
  C  C181  1  0.18780000  0.21270000  0.61460000  1.0
  C  C182  1  0.14560000  0.22390000  0.07130000  1.0
  C  C183  1  0.14230000  0.25500000  0.18200000  1.0
  C  C184  1  0.15240000  0.31310000  0.18380000  1.0
  C  C185  1  0.16290000  0.34000000  0.06940000  1.0
  C  C186  1  0.16270000  0.30950000  0.95680000  1.0
  C  C187  1  0.15630000  0.25220000  0.95940000  1.0
  C  C188  1  0.37320000  0.70020000  0.45310000  1.0
  C  C189  1  0.41080000  0.74340000  0.50520000  1.0
  C  C190  1  0.39100000  0.79720000  0.49110000  1.0
  C  C191  1  0.33180000  0.81080000  0.42720000  1.0
  C  C192  1  0.29280000  0.76670000  0.37220000  1.0
  C  C193  1  0.31220000  0.71270000  0.38540000  1.0
  C  C194  1  0.35440000  0.72390000  0.92870000  1.0
  C  C195  1  0.35770000  0.75500000  0.81800000  1.0
  C  C196  1  0.34760000  0.81310000  0.81620000  1.0
  C  C197  1  0.33710000  0.84000000  0.93060000  1.0
  C  C198  1  0.33730000  0.80950000  0.04320000  1.0
  C  C199  1  0.34370000  0.75220000  0.04060000  1.0
  C  C200  1  0.87320000  0.20020000  0.45310000  1.0
  C  C201  1  0.91080000  0.24340000  0.50520000  1.0
  C  C202  1  0.89100000  0.29720000  0.49110000  1.0
  C  C203  1  0.83180000  0.31080000  0.42720000  1.0
  C  C204  1  0.79280000  0.26670000  0.37220000  1.0
  C  C205  1  0.81220000  0.21270000  0.38540000  1.0
  C  C206  1  0.85440000  0.22390000  0.92870000  1.0
  C  C207  1  0.85770000  0.25500000  0.81800000  1.0
  C  C208  1  0.84760000  0.31310000  0.81620000  1.0
  C  C209  1  0.83710000  0.34000000  0.93060000  1.0
  C  C210  1  0.83730000  0.30950000  0.04320000  1.0
  C  C211  1  0.84370000  0.25220000  0.04060000  1.0
  O  O212  1  0.41790000  0.39030000  0.34220000  1.0
  O  O213  1  0.33880000  0.40730000  0.48280000  1.0
  O  O214  1  0.44830000  0.37680000  0.58810000  1.0
  O  O215  1  0.32290000  0.09240000  0.54710000  1.0
  O  O216  1  0.34400000  0.09050000  0.31290000  1.0
  O  O217  1  0.23620000  0.11600000  0.35720000  1.0
  O  O218  1  0.39130000  0.37020000  0.06440000  1.0
  O  O219  1  0.29820000  0.37730000  0.88670000  1.0
  O  O220  1  0.40260000  0.36450000  0.81950000  1.0
  O  O221  1  0.36120000  0.06160000  0.05750000  1.0
  O  O222  1  0.25430000  0.07800000  0.91750000  1.0
  O  O223  1  0.34780000  0.06040000  0.81110000  1.0
  O  O224  1  0.50470000  0.43860000  0.82710000  1.0
  O  O225  1  0.91790000  0.89030000  0.34220000  1.0
  O  O226  1  0.83880000  0.90730000  0.48280000  1.0
  O  O227  1  0.94830000  0.87680000  0.58810000  1.0
  O  O228  1  0.82290000  0.59240000  0.54710000  1.0
  O  O229  1  0.84400000  0.59050000  0.31290000  1.0
  O  O230  1  0.73620000  0.61600000  0.35720000  1.0
  O  O231  1  0.89130000  0.87020000  0.06440000  1.0
  O  O232  1  0.79820000  0.87730000  0.88670000  1.0
  O  O233  1  0.90260000  0.86450000  0.81950000  1.0
  O  O234  1  0.86120000  0.56160000  0.05750000  1.0
  O  O235  1  0.75430000  0.57800000  0.91750000  1.0
  O  O236  1  0.84780000  0.56040000  0.81110000  1.0
  O  O237  1  0.00470000  0.93860000  0.82710000  1.0
  O  O238  1  0.58210000  0.39030000  0.65780000  1.0
  O  O239  1  0.66120000  0.40730000  0.51720000  1.0
  O  O240  1  0.55170000  0.37680000  0.41190000  1.0
  O  O241  1  0.67710000  0.09240000  0.45290000  1.0
  O  O242  1  0.65600000  0.09050000  0.68710000  1.0
  O  O243  1  0.76380000  0.11600000  0.64280000  1.0
  O  O244  1  0.60870000  0.37020000  0.93560000  1.0
  O  O245  1  0.70180000  0.37730000  0.11330000  1.0
  O  O246  1  0.59740000  0.36450000  0.18050000  1.0
  O  O247  1  0.63880000  0.06160000  0.94250000  1.0
  O  O248  1  0.74570000  0.07800000  0.08250000  1.0
  O  O249  1  0.65220000  0.06040000  0.18890000  1.0
  O  O250  1  0.49530000  0.43860000  0.17290000  1.0
  O  O251  1  0.08210000  0.89030000  0.65780000  1.0
  O  O252  1  0.16120000  0.90730000  0.51720000  1.0
  O  O253  1  0.05170000  0.87680000  0.41190000  1.0
  O  O254  1  0.17710000  0.59240000  0.45290000  1.0
  O  O255  1  0.15600000  0.59050000  0.68710000  1.0
  O  O256  1  0.26380000  0.61600000  0.64280000  1.0
  O  O257  1  0.10870000  0.87020000  0.93560000  1.0
  O  O258  1  0.20180000  0.87730000  0.11330000  1.0
  O  O259  1  0.09740000  0.86450000  0.18050000  1.0
  O  O260  1  0.13880000  0.56160000  0.94250000  1.0
  O  O261  1  0.24570000  0.57800000  0.08250000  1.0
  O  O262  1  0.15220000  0.56040000  0.18890000  1.0
  O  O263  1  0.99530000  0.93860000  0.17290000  1.0
  O  O264  1  0.58210000  0.60970000  0.65780000  1.0
  O  O265  1  0.66120000  0.59270000  0.51720000  1.0
  O  O266  1  0.55170000  0.62320000  0.41190000  1.0
  O  O267  1  0.67710000  0.90760000  0.45290000  1.0
  O  O268  1  0.65600000  0.90950000  0.68710000  1.0
  O  O269  1  0.76380000  0.88400000  0.64280000  1.0
  O  O270  1  0.60870000  0.62980000  0.93560000  1.0
  O  O271  1  0.70180000  0.62270000  0.11330000  1.0
  O  O272  1  0.59740000  0.63550000  0.18050000  1.0
  O  O273  1  0.63880000  0.93840000  0.94250000  1.0
  O  O274  1  0.74570000  0.92200000  0.08250000  1.0
  O  O275  1  0.65220000  0.93960000  0.18890000  1.0
  O  O276  1  0.49530000  0.56140000  0.17290000  1.0
  O  O277  1  0.08210000  0.10970000  0.65780000  1.0
  O  O278  1  0.16120000  0.09270000  0.51720000  1.0
  O  O279  1  0.05170000  0.12320000  0.41190000  1.0
  O  O280  1  0.17710000  0.40760000  0.45290000  1.0
  O  O281  1  0.15600000  0.40950000  0.68710000  1.0
  O  O282  1  0.26380000  0.38400000  0.64280000  1.0
  O  O283  1  0.10870000  0.12980000  0.93560000  1.0
  O  O284  1  0.20180000  0.12270000  0.11330000  1.0
  O  O285  1  0.09740000  0.13550000  0.18050000  1.0
  O  O286  1  0.13880000  0.43840000  0.94250000  1.0
  O  O287  1  0.24570000  0.42200000  0.08250000  1.0
  O  O288  1  0.15220000  0.43960000  0.18890000  1.0
  O  O289  1  0.99530000  0.06140000  0.17290000  1.0
  O  O290  1  0.41790000  0.60970000  0.34220000  1.0
  O  O291  1  0.33880000  0.59270000  0.48280000  1.0
  O  O292  1  0.44830000  0.62320000  0.58810000  1.0
  O  O293  1  0.32290000  0.90760000  0.54710000  1.0
  O  O294  1  0.34400000  0.90950000  0.31290000  1.0
  O  O295  1  0.23620000  0.88400000  0.35720000  1.0
  O  O296  1  0.39130000  0.62980000  0.06440000  1.0
  O  O297  1  0.29820000  0.62270000  0.88670000  1.0
  O  O298  1  0.40260000  0.63550000  0.81950000  1.0
  O  O299  1  0.36120000  0.93840000  0.05750000  1.0
  O  O300  1  0.25430000  0.92200000  0.91750000  1.0
  O  O301  1  0.34780000  0.93960000  0.81110000  1.0
  O  O302  1  0.50470000  0.56140000  0.82710000  1.0
  O  O303  1  0.91790000  0.10970000  0.34220000  1.0
  O  O304  1  0.83880000  0.09270000  0.48280000  1.0
  O  O305  1  0.94830000  0.12320000  0.58810000  1.0
  O  O306  1  0.82290000  0.40760000  0.54710000  1.0
  O  O307  1  0.84400000  0.40950000  0.31290000  1.0
  O  O308  1  0.73620000  0.38400000  0.35720000  1.0
  O  O309  1  0.89130000  0.12980000  0.06440000  1.0
  O  O310  1  0.79820000  0.12270000  0.88670000  1.0
  O  O311  1  0.90260000  0.13550000  0.81950000  1.0
  O  O312  1  0.86120000  0.43840000  0.05750000  1.0
  O  O313  1  0.75430000  0.42200000  0.91750000  1.0
  O  O314  1  0.84780000  0.43960000  0.81110000  1.0
  O  O315  1  0.00470000  0.06140000  0.82710000  1.0
  O  O316  1  0.24700000  0.00000000  0.64630000  1.0
  O  O317  1  0.74700000  0.50000000  0.64630000  1.0
  O  O318  1  0.75300000  0.00000000  0.35370000  1.0
  O  O319  1  0.25300000  0.50000000  0.35370000  1.0
  F  F320  1  0.29540000  0.00000000  0.40870000  1.0
  F  F321  1  0.79540000  0.50000000  0.40870000  1.0
  F  F322  1  0.70460000  0.00000000  0.59130000  1.0
  F  F323  1  0.20460000  0.50000000  0.59130000  1.0
  F  F324  1  0.50000000  0.33350000  0.00000000  1.0
  F  F325  1  0.00000000  0.83350000  0.00000000  1.0
  F  F326  1  0.50000000  0.66650000  0.00000000  1.0
  F  F327  1  0.00000000  0.16650000  0.00000000  1.0
