# generated using pymatgen
data_K2Mn2H36WC32(N2O)6
_symmetry_space_group_name_H-M   'P 1'
_cell_length_a   10.79900000
_cell_length_b   10.79900000
_cell_length_c   20.89700000
_cell_angle_alpha   90.00000000
_cell_angle_beta   90.00000000
_cell_angle_gamma   90.00000000
_symmetry_Int_Tables_number   1
_chemical_formula_structural   K2Mn2H36WC32(N2O)6
_chemical_formula_sum   'K4 Mn4 H72 W2 C64 N24 O12'
_cell_volume   2436.97472570
_cell_formula_units_Z   2
loop_
 _symmetry_equiv_pos_site_id
 _symmetry_equiv_pos_as_xyz
  1  'x, y, z'
loop_
 _atom_site_type_symbol
 _atom_site_label
 _atom_site_symmetry_multiplicity
 _atom_site_fract_x
 _atom_site_fract_y
 _atom_site_fract_z
 _atom_site_occupancy
  K  K0  1  0.97030000  0.29930000  0.50000000  1.0
  K  K1  1  0.02970000  0.70070000  0.50000000  1.0
  K  K2  1  0.70070000  0.97030000  0.00000000  1.0
  K  K3  1  0.29930000  0.02970000  0.00000000  1.0
  Mn  Mn4  1  0.50000000  0.00000000  0.70668000  1.0
  Mn  Mn5  1  0.00000000  0.50000000  0.20668000  1.0
  Mn  Mn6  1  0.50000000  0.00000000  0.29332000  1.0
  Mn  Mn7  1  0.00000000  0.50000000  0.79332000  1.0
  H  H8  1  0.71900000  0.35100000  0.70800000  1.0
  H  H9  1  0.61800000  0.23690000  0.55670000  1.0
  H  H10  1  0.74000000  0.27930000  0.59090000  1.0
  H  H11  1  0.62260000  0.36460000  0.59230000  1.0
  H  H12  1  0.60010000  0.25480000  0.86790000  1.0
  H  H13  1  0.59870000  0.37630000  0.82690000  1.0
  H  H14  1  0.72190000  0.30110000  0.83490000  1.0
  H  H15  1  0.54590000  0.09380000  0.87370000  1.0
  H  H16  1  0.41040000  0.08420000  0.84710000  1.0
  H  H17  1  0.28100000  0.64900000  0.70800000  1.0
  H  H18  1  0.38200000  0.76310000  0.55670000  1.0
  H  H19  1  0.26000000  0.72070000  0.59090000  1.0
  H  H20  1  0.37740000  0.63540000  0.59230000  1.0
  H  H21  1  0.39990000  0.74520000  0.86790000  1.0
  H  H22  1  0.40130000  0.62370000  0.82690000  1.0
  H  H23  1  0.27810000  0.69890000  0.83490000  1.0
  H  H24  1  0.45410000  0.90620000  0.87370000  1.0
  H  H25  1  0.58960000  0.91580000  0.84710000  1.0
  H  H26  1  0.64900000  0.71900000  0.20800000  1.0
  H  H27  1  0.76310000  0.61800000  0.05670000  1.0
  H  H28  1  0.72070000  0.74000000  0.09090000  1.0
  H  H29  1  0.63540000  0.62260000  0.09230000  1.0
  H  H30  1  0.74520000  0.60010000  0.36790000  1.0
  H  H31  1  0.62370000  0.59870000  0.32690000  1.0
  H  H32  1  0.69890000  0.72190000  0.33490000  1.0
  H  H33  1  0.90620000  0.54590000  0.37370000  1.0
  H  H34  1  0.91580000  0.41040000  0.34710000  1.0
  H  H35  1  0.35100000  0.28100000  0.20800000  1.0
  H  H36  1  0.23690000  0.38200000  0.05670000  1.0
  H  H37  1  0.27930000  0.26000000  0.09090000  1.0
  H  H38  1  0.36460000  0.37740000  0.09230000  1.0
  H  H39  1  0.25480000  0.39990000  0.36790000  1.0
  H  H40  1  0.37630000  0.40130000  0.32690000  1.0
  H  H41  1  0.30110000  0.27810000  0.33490000  1.0
  H  H42  1  0.09380000  0.45410000  0.37370000  1.0
  H  H43  1  0.08420000  0.58960000  0.34710000  1.0
  H  H44  1  0.28100000  0.64900000  0.29200000  1.0
  H  H45  1  0.38200000  0.76310000  0.44330000  1.0
  H  H46  1  0.26000000  0.72070000  0.40910000  1.0
  H  H47  1  0.37740000  0.63540000  0.40770000  1.0
  H  H48  1  0.39990000  0.74520000  0.13210000  1.0
  H  H49  1  0.40130000  0.62370000  0.17310000  1.0
  H  H50  1  0.27810000  0.69890000  0.16510000  1.0
  H  H51  1  0.45410000  0.90620000  0.12630000  1.0
  H  H52  1  0.58960000  0.91580000  0.15290000  1.0
  H  H53  1  0.71900000  0.35100000  0.29200000  1.0
  H  H54  1  0.61800000  0.23690000  0.44330000  1.0
  H  H55  1  0.74000000  0.27930000  0.40910000  1.0
  H  H56  1  0.62260000  0.36460000  0.40770000  1.0
  H  H57  1  0.60010000  0.25480000  0.13210000  1.0
  H  H58  1  0.59870000  0.37630000  0.17310000  1.0
  H  H59  1  0.72190000  0.30110000  0.16510000  1.0
  H  H60  1  0.54590000  0.09380000  0.12630000  1.0
  H  H61  1  0.41040000  0.08420000  0.15290000  1.0
  H  H62  1  0.35100000  0.28100000  0.79200000  1.0
  H  H63  1  0.23690000  0.38200000  0.94330000  1.0
  H  H64  1  0.27930000  0.26000000  0.90910000  1.0
  H  H65  1  0.36460000  0.37740000  0.90770000  1.0
  H  H66  1  0.25480000  0.39990000  0.63210000  1.0
  H  H67  1  0.37630000  0.40130000  0.67310000  1.0
  H  H68  1  0.30110000  0.27810000  0.66510000  1.0
  H  H69  1  0.09380000  0.45410000  0.62630000  1.0
  H  H70  1  0.08420000  0.58960000  0.65290000  1.0
  H  H71  1  0.64900000  0.71900000  0.79200000  1.0
  H  H72  1  0.76310000  0.61800000  0.94330000  1.0
  H  H73  1  0.72070000  0.74000000  0.90910000  1.0
  H  H74  1  0.63540000  0.62260000  0.90770000  1.0
  H  H75  1  0.74520000  0.60010000  0.63210000  1.0
  H  H76  1  0.62370000  0.59870000  0.67310000  1.0
  H  H77  1  0.69890000  0.72190000  0.66510000  1.0
  H  H78  1  0.90620000  0.54590000  0.62630000  1.0
  H  H79  1  0.91580000  0.41040000  0.65290000  1.0
  W  W80  1  0.00000000  0.00000000  0.75000000  1.0
  W  W81  1  0.00000000  0.00000000  0.25000000  1.0
  C  C82  1  0.98490000  0.11650000  0.66700000  1.0
  C  C83  1  0.19400000  0.03020000  0.72100000  1.0
  C  C84  1  0.60880000  0.21850000  0.65380000  1.0
  C  C85  1  0.64330000  0.26330000  0.71160000  1.0
  C  C86  1  0.65120000  0.28050000  0.59290000  1.0
  C  C87  1  0.60190000  0.21960000  0.77150000  1.0
  C  C88  1  0.63360000  0.29490000  0.83080000  1.0
  C  C89  1  0.49570000  0.06050000  0.83920000  1.0
  C  C90  1  0.01510000  0.88350000  0.66700000  1.0
  C  C91  1  0.80600000  0.96980000  0.72100000  1.0
  C  C92  1  0.39120000  0.78150000  0.65380000  1.0
  C  C93  1  0.35670000  0.73670000  0.71160000  1.0
  C  C94  1  0.34880000  0.71950000  0.59290000  1.0
  C  C95  1  0.39810000  0.78040000  0.77150000  1.0
  C  C96  1  0.36640000  0.70510000  0.83080000  1.0
  C  C97  1  0.50430000  0.93950000  0.83920000  1.0
  C  C98  1  0.88350000  0.98490000  0.16700000  1.0
  C  C99  1  0.96980000  0.19400000  0.22100000  1.0
  C  C100  1  0.78150000  0.60880000  0.15380000  1.0
  C  C101  1  0.73670000  0.64330000  0.21160000  1.0
  C  C102  1  0.71950000  0.65120000  0.09290000  1.0
  C  C103  1  0.78040000  0.60190000  0.27150000  1.0
  C  C104  1  0.70510000  0.63360000  0.33080000  1.0
  C  C105  1  0.93950000  0.49570000  0.33920000  1.0
  C  C106  1  0.11650000  0.01510000  0.16700000  1.0
  C  C107  1  0.03020000  0.80600000  0.22100000  1.0
  C  C108  1  0.21850000  0.39120000  0.15380000  1.0
  C  C109  1  0.26330000  0.35670000  0.21160000  1.0
  C  C110  1  0.28050000  0.34880000  0.09290000  1.0
  C  C111  1  0.21960000  0.39810000  0.27150000  1.0
  C  C112  1  0.29490000  0.36640000  0.33080000  1.0
  C  C113  1  0.06050000  0.50430000  0.33920000  1.0
  C  C114  1  0.01510000  0.88350000  0.33300000  1.0
  C  C115  1  0.80600000  0.96980000  0.27900000  1.0
  C  C116  1  0.39120000  0.78150000  0.34620000  1.0
  C  C117  1  0.35670000  0.73670000  0.28840000  1.0
  C  C118  1  0.34880000  0.71950000  0.40710000  1.0
  C  C119  1  0.39810000  0.78040000  0.22850000  1.0
  C  C120  1  0.36640000  0.70510000  0.16920000  1.0
  C  C121  1  0.50430000  0.93950000  0.16080000  1.0
  C  C122  1  0.98490000  0.11650000  0.33300000  1.0
  C  C123  1  0.19400000  0.03020000  0.27900000  1.0
  C  C124  1  0.60880000  0.21850000  0.34620000  1.0
  C  C125  1  0.64330000  0.26330000  0.28840000  1.0
  C  C126  1  0.65120000  0.28050000  0.40710000  1.0
  C  C127  1  0.60190000  0.21960000  0.22850000  1.0
  C  C128  1  0.63360000  0.29490000  0.16920000  1.0
  C  C129  1  0.49570000  0.06050000  0.16080000  1.0
  C  C130  1  0.11650000  0.01510000  0.83300000  1.0
  C  C131  1  0.03020000  0.80600000  0.77900000  1.0
  C  C132  1  0.21850000  0.39120000  0.84620000  1.0
  C  C133  1  0.26330000  0.35670000  0.78840000  1.0
  C  C134  1  0.28050000  0.34880000  0.90710000  1.0
  C  C135  1  0.21960000  0.39810000  0.72850000  1.0
  C  C136  1  0.29490000  0.36640000  0.66920000  1.0
  C  C137  1  0.06050000  0.50430000  0.66080000  1.0
  C  C138  1  0.88350000  0.98490000  0.83300000  1.0
  C  C139  1  0.96980000  0.19400000  0.77900000  1.0
  C  C140  1  0.78150000  0.60880000  0.84620000  1.0
  C  C141  1  0.73670000  0.64330000  0.78840000  1.0
  C  C142  1  0.71950000  0.65120000  0.90710000  1.0
  C  C143  1  0.78040000  0.60190000  0.72850000  1.0
  C  C144  1  0.70510000  0.63360000  0.66920000  1.0
  C  C145  1  0.93950000  0.49570000  0.66080000  1.0
  N  N146  1  0.28970000  0.05020000  0.70780000  1.0
  N  N147  1  0.97470000  0.17440000  0.62170000  1.0
  N  N148  1  0.53650000  0.11400000  0.77870000  1.0
  N  N149  1  0.71030000  0.94980000  0.70780000  1.0
  N  N150  1  0.02530000  0.82560000  0.62170000  1.0
  N  N151  1  0.46350000  0.88600000  0.77870000  1.0
  N  N152  1  0.94980000  0.28970000  0.20780000  1.0
  N  N153  1  0.82560000  0.97470000  0.12170000  1.0
  N  N154  1  0.88600000  0.53650000  0.27870000  1.0
  N  N155  1  0.05020000  0.71030000  0.20780000  1.0
  N  N156  1  0.17440000  0.02530000  0.12170000  1.0
  N  N157  1  0.11400000  0.46350000  0.27870000  1.0
  N  N158  1  0.71030000  0.94980000  0.29220000  1.0
  N  N159  1  0.02530000  0.82560000  0.37830000  1.0
  N  N160  1  0.46350000  0.88600000  0.22130000  1.0
  N  N161  1  0.28970000  0.05020000  0.29220000  1.0
  N  N162  1  0.97470000  0.17440000  0.37830000  1.0
  N  N163  1  0.53650000  0.11400000  0.22130000  1.0
  N  N164  1  0.05020000  0.71030000  0.79220000  1.0
  N  N165  1  0.17440000  0.02530000  0.87830000  1.0
  N  N166  1  0.11400000  0.46350000  0.72130000  1.0
  N  N167  1  0.94980000  0.28970000  0.79220000  1.0
  N  N168  1  0.82560000  0.97470000  0.87830000  1.0
  N  N169  1  0.88600000  0.53650000  0.72130000  1.0
  O  O170  1  0.53870000  0.11940000  0.64460000  1.0
  O  O171  1  0.46130000  0.88060000  0.64460000  1.0
  O  O172  1  0.88060000  0.53870000  0.14460000  1.0
  O  O173  1  0.11940000  0.46130000  0.14460000  1.0
  O  O174  1  0.46130000  0.88060000  0.35540000  1.0
  O  O175  1  0.53870000  0.11940000  0.35540000  1.0
  O  O176  1  0.11940000  0.46130000  0.85540000  1.0
  O  O177  1  0.88060000  0.53870000  0.85540000  1.0
  O  O178  1  0.83500000  0.52500000  0.50000000  1.0
  O  O179  1  0.16500000  0.47500000  0.50000000  1.0
  O  O180  1  0.47500000  0.83500000  0.00000000  1.0
  O  O181  1  0.52500000  0.16500000  0.00000000  1.0
