# generated using pymatgen
data_ZnH3C3(N2O)2
_symmetry_space_group_name_H-M   'P 1'
_cell_length_a   12.95910000
_cell_length_b   13.79710000
_cell_length_c   16.81530000
_cell_angle_alpha   90.00000000
_cell_angle_beta   90.00000000
_cell_angle_gamma   90.00000000
_symmetry_Int_Tables_number   1
_chemical_formula_structural   ZnH3C3(N2O)2
_chemical_formula_sum   'Zn16 H48 C48 N64 O32'
_cell_volume   3006.54198603
_cell_formula_units_Z   16
loop_
 _symmetry_equiv_pos_site_id
 _symmetry_equiv_pos_as_xyz
  1  'x, y, z'
loop_
 _atom_site_type_symbol
 _atom_site_label
 _atom_site_symmetry_multiplicity
 _atom_site_fract_x
 _atom_site_fract_y
 _atom_site_fract_z
 _atom_site_occupancy
  Zn  Zn0  1  0.42665000  0.97754000  0.40392000  1.0
  Zn  Zn1  1  0.47660000  0.90714000  0.07610000  1.0
  Zn  Zn2  1  0.57335000  0.52246000  0.90392000  1.0
  Zn  Zn3  1  0.52340000  0.59286000  0.57610000  1.0
  Zn  Zn4  1  0.92665000  0.02246000  0.09608000  1.0
  Zn  Zn5  1  0.97660000  0.09286000  0.42390000  1.0
  Zn  Zn6  1  0.07335000  0.47754000  0.59608000  1.0
  Zn  Zn7  1  0.02340000  0.40714000  0.92390000  1.0
  Zn  Zn8  1  0.57335000  0.02246000  0.59608000  1.0
  Zn  Zn9  1  0.52340000  0.09286000  0.92390000  1.0
  Zn  Zn10  1  0.42665000  0.47754000  0.09608000  1.0
  Zn  Zn11  1  0.47660000  0.40714000  0.42390000  1.0
  Zn  Zn12  1  0.07335000  0.97754000  0.90392000  1.0
  Zn  Zn13  1  0.02340000  0.90714000  0.57610000  1.0
  Zn  Zn14  1  0.92665000  0.52246000  0.40392000  1.0
  Zn  Zn15  1  0.97660000  0.59286000  0.07610000  1.0
  H  H16  1  0.25180000  0.86340000  0.50160000  1.0
  H  H17  1  0.44660000  0.19500000  0.35290000  1.0
  H  H18  1  0.17250000  0.16930000  0.35630000  1.0
  H  H19  1  0.28170000  0.13250000  0.34100000  1.0
  H  H20  1  0.58710000  0.23780000  0.62530000  1.0
  H  H21  1  0.56420000  0.33340000  0.58350000  1.0
  H  H22  1  0.74820000  0.63660000  0.00160000  1.0
  H  H23  1  0.55340000  0.30500000  0.85290000  1.0
  H  H24  1  0.82750000  0.33070000  0.85630000  1.0
  H  H25  1  0.71830000  0.36750000  0.84100000  1.0
  H  H26  1  0.41290000  0.26220000  0.12530000  1.0
  H  H27  1  0.43580000  0.16660000  0.08350000  1.0
  H  H28  1  0.75180000  0.13660000  0.99840000  1.0
  H  H29  1  0.94660000  0.80500000  0.14710000  1.0
  H  H30  1  0.67250000  0.83070000  0.14370000  1.0
  H  H31  1  0.78170000  0.86750000  0.15900000  1.0
  H  H32  1  0.08710000  0.76220000  0.87470000  1.0
  H  H33  1  0.06420000  0.66666667  0.91650000  1.0
  H  H34  1  0.24820000  0.36340000  0.49840000  1.0
  H  H35  1  0.05340000  0.69500000  0.64710000  1.0
  H  H36  1  0.32750000  0.66930000  0.64370000  1.0
  H  H37  1  0.21830000  0.63250000  0.65900000  1.0
  H  H38  1  0.91290000  0.73780000  0.37470000  1.0
  H  H39  1  0.93580000  0.83340000  0.41650000  1.0
  H  H40  1  0.74820000  0.13660000  0.49840000  1.0
  H  H41  1  0.55340000  0.80500000  0.64710000  1.0
  H  H42  1  0.82750000  0.83070000  0.64370000  1.0
  H  H43  1  0.71830000  0.86750000  0.65900000  1.0
  H  H44  1  0.41290000  0.76220000  0.37470000  1.0
  H  H45  1  0.43580000  0.66666667  0.41650000  1.0
  H  H46  1  0.25180000  0.36340000  0.99840000  1.0
  H  H47  1  0.44660000  0.69500000  0.14710000  1.0
  H  H48  1  0.17250000  0.66930000  0.14370000  1.0
  H  H49  1  0.28170000  0.63250000  0.15900000  1.0
  H  H50  1  0.58710000  0.73780000  0.87470000  1.0
  H  H51  1  0.56420000  0.83340000  0.91650000  1.0
  H  H52  1  0.24820000  0.86340000  0.00160000  1.0
  H  H53  1  0.05340000  0.19500000  0.85290000  1.0
  H  H54  1  0.32750000  0.16930000  0.85630000  1.0
  H  H55  1  0.21830000  0.13250000  0.84100000  1.0
  H  H56  1  0.91290000  0.23780000  0.12530000  1.0
  H  H57  1  0.93580000  0.33340000  0.08350000  1.0
  H  H58  1  0.75180000  0.63660000  0.50160000  1.0
  H  H59  1  0.94660000  0.30500000  0.35290000  1.0
  H  H60  1  0.67250000  0.33070000  0.35630000  1.0
  H  H61  1  0.78170000  0.36750000  0.34100000  1.0
  H  H62  1  0.08710000  0.26220000  0.62530000  1.0
  H  H63  1  0.06420000  0.16660000  0.58350000  1.0
  C  C64  1  0.42350000  0.00600000  0.22305000  1.0
  C  C65  1  0.47240000  0.90910000  0.24642000  1.0
  C  C66  1  0.20230000  0.04750000  0.41099000  1.0
  C  C67  1  0.22210000  0.91950000  0.47818000  1.0
  C  C68  1  0.52690000  0.22040000  0.51992000  1.0
  C  C69  1  0.47160000  0.18800000  0.40569000  1.0
  C  C70  1  0.57650000  0.49400000  0.72305000  1.0
  C  C71  1  0.52760000  0.59090000  0.74642000  1.0
  C  C72  1  0.79770000  0.45250000  0.91099000  1.0
  C  C73  1  0.77790000  0.58050000  0.97818000  1.0
  C  C74  1  0.47310000  0.27960000  0.01992000  1.0
  C  C75  1  0.52840000  0.31200000  0.90569000  1.0
  C  C76  1  0.92350000  0.99400000  0.27695000  1.0
  C  C77  1  0.97240000  0.09090000  0.25358000  1.0
  C  C78  1  0.70230000  0.95250000  0.08901000  1.0
  C  C79  1  0.72210000  0.08050000  0.02182000  1.0
  C  C80  1  0.02690000  0.77960000  0.98008000  1.0
  C  C81  1  0.97160000  0.81200000  0.09431000  1.0
  C  C82  1  0.07650000  0.50600000  0.77695000  1.0
  C  C83  1  0.02760000  0.40910000  0.75358000  1.0
  C  C84  1  0.29770000  0.54750000  0.58901000  1.0
  C  C85  1  0.27790000  0.41950000  0.52182000  1.0
  C  C86  1  0.97310000  0.72040000  0.48008000  1.0
  C  C87  1  0.02840000  0.68800000  0.59431000  1.0
  C  C88  1  0.57650000  0.99400000  0.77695000  1.0
  C  C89  1  0.52760000  0.09090000  0.75358000  1.0
  C  C90  1  0.79770000  0.95250000  0.58901000  1.0
  C  C91  1  0.77790000  0.08050000  0.52182000  1.0
  C  C92  1  0.47310000  0.77960000  0.48008000  1.0
  C  C93  1  0.52840000  0.81200000  0.59431000  1.0
  C  C94  1  0.42350000  0.50600000  0.27695000  1.0
  C  C95  1  0.47240000  0.40910000  0.25358000  1.0
  C  C96  1  0.20230000  0.54750000  0.08901000  1.0
  C  C97  1  0.22210000  0.41950000  0.02182000  1.0
  C  C98  1  0.52690000  0.72040000  0.98008000  1.0
  C  C99  1  0.47160000  0.68800000  0.09431000  1.0
  C  C100  1  0.07650000  0.00600000  0.72305000  1.0
  C  C101  1  0.02760000  0.90910000  0.74642000  1.0
  C  C102  1  0.29770000  0.04750000  0.91099000  1.0
  C  C103  1  0.27790000  0.91950000  0.97818000  1.0
  C  C104  1  0.97310000  0.22040000  0.01992000  1.0
  C  C105  1  0.02840000  0.18800000  0.90569000  1.0
  C  C106  1  0.92350000  0.49400000  0.22305000  1.0
  C  C107  1  0.97240000  0.59090000  0.24642000  1.0
  C  C108  1  0.70230000  0.45250000  0.41099000  1.0
  C  C109  1  0.72210000  0.58050000  0.47818000  1.0
  C  C110  1  0.02690000  0.27960000  0.51992000  1.0
  C  C111  1  0.97160000  0.31200000  0.40569000  1.0
  N  N112  1  0.27370000  0.97853000  0.42800000  1.0
  N  N113  1  0.12710000  0.94717000  0.49140000  1.0
  N  N114  1  0.11360000  0.03140000  0.44764000  1.0
  N  N115  1  0.22100000  0.12560000  0.36390000  1.0
  N  N116  1  0.52330000  0.12399000  0.51537000  1.0
  N  N117  1  0.48670000  0.10408000  0.43960000  1.0
  N  N118  1  0.49480000  0.26318000  0.45276000  1.0
  N  N119  1  0.56370000  0.26960000  0.58371000  1.0
  N  N120  1  0.72630000  0.52147000  0.92800000  1.0
  N  N121  1  0.87290000  0.55283000  0.99140000  1.0
  N  N122  1  0.88640000  0.46860000  0.94764000  1.0
  N  N123  1  0.77900000  0.37440000  0.86390000  1.0
  N  N124  1  0.47670000  0.37601000  0.01537000  1.0
  N  N125  1  0.51330000  0.39592000  0.93960000  1.0
  N  N126  1  0.50520000  0.23682000  0.95276000  1.0
  N  N127  1  0.43630000  0.23040000  0.08371000  1.0
  N  N128  1  0.77370000  0.02147000  0.07200000  1.0
  N  N129  1  0.62710000  0.05283000  0.00860000  1.0
  N  N130  1  0.61360000  0.96860000  0.05236000  1.0
  N  N131  1  0.72100000  0.87440000  0.13610000  1.0
  N  N132  1  0.02330000  0.87601000  0.98463000  1.0
  N  N133  1  0.98670000  0.89592000  0.06040000  1.0
  N  N134  1  0.99480000  0.73682000  0.04724000  1.0
  N  N135  1  0.06370000  0.73040000  0.91629000  1.0
  N  N136  1  0.22630000  0.47853000  0.57200000  1.0
  N  N137  1  0.37290000  0.44717000  0.50860000  1.0
  N  N138  1  0.38640000  0.53140000  0.55236000  1.0
  N  N139  1  0.27900000  0.62560000  0.63610000  1.0
  N  N140  1  0.97670000  0.62399000  0.48463000  1.0
  N  N141  1  0.01330000  0.60408000  0.56040000  1.0
  N  N142  1  0.00520000  0.76318000  0.54724000  1.0
  N  N143  1  0.93630000  0.76960000  0.41629000  1.0
  N  N144  1  0.72630000  0.02147000  0.57200000  1.0
  N  N145  1  0.87290000  0.05283000  0.50860000  1.0
  N  N146  1  0.88640000  0.96860000  0.55236000  1.0
  N  N147  1  0.77900000  0.87440000  0.63610000  1.0
  N  N148  1  0.47670000  0.87601000  0.48463000  1.0
  N  N149  1  0.51330000  0.89592000  0.56040000  1.0
  N  N150  1  0.50520000  0.73682000  0.54724000  1.0
  N  N151  1  0.43630000  0.73040000  0.41629000  1.0
  N  N152  1  0.27370000  0.47853000  0.07200000  1.0
  N  N153  1  0.12710000  0.44717000  0.00860000  1.0
  N  N154  1  0.11360000  0.53140000  0.05236000  1.0
  N  N155  1  0.22100000  0.62560000  0.13610000  1.0
  N  N156  1  0.52330000  0.62399000  0.98463000  1.0
  N  N157  1  0.48670000  0.60408000  0.06040000  1.0
  N  N158  1  0.49480000  0.76318000  0.04724000  1.0
  N  N159  1  0.56370000  0.76960000  0.91629000  1.0
  N  N160  1  0.22630000  0.97853000  0.92800000  1.0
  N  N161  1  0.37290000  0.94717000  0.99140000  1.0
  N  N162  1  0.38640000  0.03140000  0.94764000  1.0
  N  N163  1  0.27900000  0.12560000  0.86390000  1.0
  N  N164  1  0.97670000  0.12399000  0.01537000  1.0
  N  N165  1  0.01330000  0.10408000  0.93960000  1.0
  N  N166  1  0.00520000  0.26318000  0.95276000  1.0
  N  N167  1  0.93630000  0.26960000  0.08371000  1.0
  N  N168  1  0.77370000  0.52147000  0.42800000  1.0
  N  N169  1  0.62710000  0.55283000  0.49140000  1.0
  N  N170  1  0.61360000  0.46860000  0.44764000  1.0
  N  N171  1  0.72100000  0.37440000  0.36390000  1.0
  N  N172  1  0.02330000  0.37601000  0.51537000  1.0
  N  N173  1  0.98670000  0.39592000  0.43960000  1.0
  N  N174  1  0.99480000  0.23682000  0.45276000  1.0
  N  N175  1  0.06370000  0.23040000  0.58371000  1.0
  O  O176  1  0.39470000  0.05825000  0.27924000  1.0
  O  O177  1  0.48250000  0.89053000  0.31869000  1.0
  O  O178  1  0.41720000  0.02290000  0.14989000  1.0
  O  O179  1  0.50250000  0.85484000  0.19171000  1.0
  O  O180  1  0.60530000  0.44175000  0.77924000  1.0
  O  O181  1  0.51750000  0.60947000  0.81869000  1.0
  O  O182  1  0.58280000  0.47710000  0.64989000  1.0
  O  O183  1  0.49750000  0.64516000  0.69171000  1.0
  O  O184  1  0.89470000  0.94175000  0.22076000  1.0
  O  O185  1  0.98250000  0.10947000  0.18131000  1.0
  O  O186  1  0.91720000  0.97710000  0.35011000  1.0
  O  O187  1  0.00250000  0.14516000  0.30829000  1.0
  O  O188  1  0.10530000  0.55825000  0.72076000  1.0
  O  O189  1  0.01750000  0.39053000  0.68131000  1.0
  O  O190  1  0.08280000  0.52290000  0.85011000  1.0
  O  O191  1  0.99750000  0.35484000  0.80829000  1.0
  O  O192  1  0.60530000  0.94175000  0.72076000  1.0
  O  O193  1  0.51750000  0.10947000  0.68131000  1.0
  O  O194  1  0.58280000  0.97710000  0.85011000  1.0
  O  O195  1  0.49750000  0.14516000  0.80829000  1.0
  O  O196  1  0.39470000  0.55825000  0.22076000  1.0
  O  O197  1  0.48250000  0.39053000  0.18131000  1.0
  O  O198  1  0.41720000  0.52290000  0.35011000  1.0
  O  O199  1  0.50250000  0.35484000  0.30829000  1.0
  O  O200  1  0.10530000  0.05825000  0.77924000  1.0
  O  O201  1  0.01750000  0.89053000  0.81869000  1.0
  O  O202  1  0.08280000  0.02290000  0.64989000  1.0
  O  O203  1  0.99750000  0.85484000  0.69171000  1.0
  O  O204  1  0.89470000  0.44175000  0.27924000  1.0
  O  O205  1  0.98250000  0.60947000  0.31869000  1.0
  O  O206  1  0.91720000  0.47710000  0.14989000  1.0
  O  O207  1  0.00250000  0.64516000  0.19171000  1.0
