# generated using pymatgen
data_Na2Pr4P5H9W30C16(NO49)2
_symmetry_space_group_name_H-M   'P 1'
_cell_length_a   17.78790000
_cell_length_b   17.98000000
_cell_length_c   26.74200000
_cell_angle_alpha   88.79100000
_cell_angle_beta   79.04900000
_cell_angle_gamma   71.30600000
_symmetry_Int_Tables_number   1
_chemical_formula_structural   Na2Pr4P5H9W30C16(NO49)2
_chemical_formula_sum   'Na4 Pr8 P10 H18 W60 C32 N4 O196'
_cell_volume   7946.77315339
_cell_formula_units_Z   2
loop_
 _symmetry_equiv_pos_site_id
 _symmetry_equiv_pos_as_xyz
  1  'x, y, z'
loop_
 _atom_site_type_symbol
 _atom_site_label
 _atom_site_symmetry_multiplicity
 _atom_site_fract_x
 _atom_site_fract_y
 _atom_site_fract_z
 _atom_site_occupancy
  Na  Na0  1  0.82360000  0.48460000  0.80910000  1.0
  Na  Na1  1  0.25940000  0.49150000  0.05770000  1.0
  Na  Na2  1  0.17640000  0.51540000  0.19090000  1.0
  Na  Na3  1  0.74060000  0.50850000  0.94230000  1.0
  Pr  Pr4  1  0.39872000  0.92559000  0.07540000  1.0
  Pr  Pr5  1  0.73242000  0.74591000  0.88498000  1.0
  Pr  Pr6  1  0.77006000  0.28357000  0.77651000  1.0
  Pr  Pr7  1  0.07949000  0.62537000  0.42828000  1.0
  Pr  Pr8  1  0.60128000  0.07441000  0.92460000  1.0
  Pr  Pr9  1  0.26758000  0.25409000  0.11502000  1.0
  Pr  Pr10  1  0.22994000  0.71643000  0.22349000  1.0
  Pr  Pr11  1  0.92051000  0.37463000  0.57172000  1.0
  P  P12  1  0.10220000  0.68780000  0.69550000  1.0
  P  P13  1  0.10140000  0.91690000  0.69180000  1.0
  P  P14  1  0.24660000  0.94160000  0.78770000  1.0
  P  P15  1  0.33430000  0.73080000  0.85150000  1.0
  P  P16  1  0.24540000  0.57480000  0.79500000  1.0
  P  P17  1  0.89780000  0.31220000  0.30450000  1.0
  P  P18  1  0.89860000  0.08310000  0.30820000  1.0
  P  P19  1  0.75340000  0.05840000  0.21230000  1.0
  P  P20  1  0.66570000  0.26920000  0.14850000  1.0
  P  P21  1  0.75460000  0.42520000  0.20500000  1.0
  H  H22  1  0.80150000  0.71990000  0.35240000  1.0
  H  H23  1  0.85810000  0.70690000  0.26610000  1.0
  H  H24  1  0.99760000  0.66610000  0.23970000  1.0
  H  H25  1  0.61900000  0.64890000  0.98190000  1.0
  H  H26  1  0.55490000  0.56180000  0.02320000  1.0
  H  H27  1  0.43660000  0.61050000  0.08600000  1.0
  H  H28  1  0.27110000  0.04020000  0.24480000  1.0
  H  H29  1  0.30240000  0.11460000  0.24130000  1.0
  H  H30  1  0.21560000  0.12300000  0.22890000  1.0
  H  H31  1  0.19850000  0.28010000  0.64760000  1.0
  H  H32  1  0.14190000  0.29310000  0.73390000  1.0
  H  H33  1  0.00240000  0.33390000  0.76030000  1.0
  H  H34  1  0.38100000  0.35110000  0.01810000  1.0
  H  H35  1  0.44510000  0.43820000  0.97680000  1.0
  H  H36  1  0.56340000  0.38950000  0.91400000  1.0
  H  H37  1  0.72890000  0.95980000  0.75520000  1.0
  H  H38  1  0.69760000  0.88540000  0.75870000  1.0
  H  H39  1  0.78440000  0.87700000  0.77110000  1.0
  W  W40  1  0.07825000  0.64227000  0.88980000  1.0
  W  W41  1  0.16101000  0.78486000  0.94118000  1.0
  W  W42  1  0.25802000  0.03904000  0.89173000  1.0
  W  W43  1  0.99973000  0.55438000  0.73055000  1.0
  W  W44  1  0.33925000  0.84386000  0.95240000  1.0
  W  W45  1  0.12103000  0.13528000  0.80037000  1.0
  W  W46  1  0.26349000  0.48622000  0.91000000  1.0
  W  W47  1  0.27779000  0.40913000  0.71914000  1.0
  W  W48  1  0.50137000  0.77513000  0.86194000  1.0
  W  W49  1  0.08273000  0.97904000  0.88436000  1.0
  W  W50  1  0.95148000  0.74779000  0.79814000  1.0
  W  W51  1  0.42389000  0.97198000  0.80331000  1.0
  W  W52  1  0.40454000  0.87460000  0.68764000  1.0
  W  W53  1  0.13286000  0.45281000  0.82320000  1.0
  W  W54  1  0.34460000  0.63439000  0.96251000  1.0
  W  W55  1  0.27120000  0.85206000  0.60104000  1.0
  W  W56  1  0.15552000  0.06476000  0.62576000  1.0
  W  W57  1  0.95213000  0.95465000  0.79617000  1.0
  W  W58  1  0.27380000  0.64317000  0.60513000  1.0
  W  W59  1  0.91176000  0.74478000  0.66985000  1.0
  W  W60  1  0.98597000  0.10904000  0.71281000  1.0
  W  W61  1  0.14572000  0.51753000  0.62748000  1.0
  W  W62  1  0.29294000  0.08326000  0.71383000  1.0
  W  W63  1  0.41199000  0.42381000  0.80884000  1.0
  W  W64  1  0.49508000  0.56722000  0.86392000  1.0
  W  W65  1  0.48476000  0.68226000  0.74679000  1.0
  W  W66  1  0.40505000  0.53846000  0.69551000  1.0
  W  W67  1  0.06838000  0.71588000  0.57347000  1.0
  W  W68  1  0.06961000  0.92690000  0.57062000  1.0
  W  W69  1  0.91031000  0.95600000  0.66504000  1.0
  W  W70  1  0.92175000  0.35773000  0.11020000  1.0
  W  W71  1  0.83899000  0.21514000  0.05882000  1.0
  W  W72  1  0.74198000  0.96096000  0.10827000  1.0
  W  W73  1  0.00027000  0.44562000  0.26945000  1.0
  W  W74  1  0.66075000  0.15614000  0.04760000  1.0
  W  W75  1  0.87897000  0.86472000  0.19963000  1.0
  W  W76  1  0.73651000  0.51378000  0.09000000  1.0
  W  W77  1  0.72221000  0.59087000  0.28086000  1.0
  W  W78  1  0.49863000  0.22487000  0.13806000  1.0
  W  W79  1  0.91727000  0.02096000  0.11564000  1.0
  W  W80  1  0.04852000  0.25221000  0.20186000  1.0
  W  W81  1  0.57611000  0.02802000  0.19669000  1.0
  W  W82  1  0.59546000  0.12540000  0.31236000  1.0
  W  W83  1  0.86714000  0.54719000  0.17680000  1.0
  W  W84  1  0.65540000  0.36561000  0.03749000  1.0
  W  W85  1  0.72880000  0.14794000  0.39896000  1.0
  W  W86  1  0.84448000  0.93524000  0.37424000  1.0
  W  W87  1  0.04787000  0.04535000  0.20383000  1.0
  W  W88  1  0.72620000  0.35683000  0.39487000  1.0
  W  W89  1  0.08824000  0.25522000  0.33015000  1.0
  W  W90  1  0.01403000  0.89096000  0.28719000  1.0
  W  W91  1  0.85428000  0.48247000  0.37252000  1.0
  W  W92  1  0.70706000  0.91674000  0.28617000  1.0
  W  W93  1  0.58801000  0.57619000  0.19116000  1.0
  W  W94  1  0.50492000  0.43278000  0.13608000  1.0
  W  W95  1  0.51524000  0.31774000  0.25321000  1.0
  W  W96  1  0.59495000  0.46154000  0.30449000  1.0
  W  W97  1  0.93162000  0.28412000  0.42653000  1.0
  W  W98  1  0.93039000  0.07310000  0.42938000  1.0
  W  W99  1  0.08969000  0.04400000  0.33496000  1.0
  C  C100  1  0.90760000  0.68690000  0.37700000  1.0
  C  C101  1  0.85860000  0.70320000  0.34160000  1.0
  C  C102  1  0.89200000  0.69550000  0.29060000  1.0
  C  C103  1  0.97450000  0.67150000  0.27500000  1.0
  C  C104  1  0.02350000  0.65510000  0.31040000  1.0
  C  C105  1  0.89100000  0.36700000  0.69940000  1.0
  C  C106  1  0.87500000  0.69300000  0.43480000  1.0
  C  C107  1  0.53890000  0.74960000  0.02020000  1.0
  C  C108  1  0.57130000  0.66850000  0.00730000  1.0
  C  C109  1  0.53310000  0.61650000  0.03190000  1.0
  C  C110  1  0.46240000  0.64560000  0.06940000  1.0
  C  C111  1  0.42990000  0.72660000  0.08230000  1.0
  C  C112  1  0.56910000  0.80890000  0.99370000  1.0
  C  C113  1  0.36100000  0.76550000  0.12390000  1.0
  C  C114  1  0.27100000  0.08800000  0.22640000  1.0
  C  C115  1  0.31100000  0.06480000  0.16850000  1.0
  C  C116  1  0.09240000  0.31310000  0.62300000  1.0
  C  C117  1  0.14140000  0.29680000  0.65840000  1.0
  C  C118  1  0.10800000  0.30450000  0.70940000  1.0
  C  C119  1  0.02550000  0.32850000  0.72500000  1.0
  C  C120  1  0.97650000  0.34490000  0.68960000  1.0
  C  C121  1  0.10900000  0.63300000  0.30060000  1.0
  C  C122  1  0.12500000  0.30700000  0.56520000  1.0
  C  C123  1  0.46110000  0.25040000  0.97980000  1.0
  C  C124  1  0.42870000  0.33150000  0.99270000  1.0
  C  C125  1  0.46690000  0.38350000  0.96810000  1.0
  C  C126  1  0.53760000  0.35440000  0.93060000  1.0
  C  C127  1  0.57010000  0.27340000  0.91770000  1.0
  C  C128  1  0.43090000  0.19110000  0.00630000  1.0
  C  C129  1  0.63900000  0.23450000  0.87610000  1.0
  C  C130  1  0.72900000  0.91200000  0.77360000  1.0
  C  C131  1  0.68900000  0.93520000  0.83150000  1.0
  N  N132  1  0.99000000  0.66280000  0.36140000  1.0
  N  N133  1  0.46820000  0.77860000  0.05760000  1.0
  N  N134  1  0.01000000  0.33720000  0.63860000  1.0
  N  N135  1  0.53180000  0.22140000  0.94240000  1.0
  O  O136  1  0.31520000  0.54250000  0.93630000  1.0
  O  O137  1  0.28680000  0.74360000  0.60500000  1.0
  O  O138  1  0.20390000  0.11000000  0.85100000  1.0
  O  O139  1  0.45520000  0.49180000  0.84660000  1.0
  O  O140  1  0.08300000  0.06590000  0.84380000  1.0
  O  O141  1  0.23410000  0.55520000  0.61440000  1.0
  O  O142  1  0.10880000  0.72740000  0.91370000  1.0
  O  O143  1  0.36710000  0.72660000  0.96860000  1.0
  O  O144  1  0.46070000  0.88860000  0.83940000  1.0
  O  O145  1  0.95950000  0.84890000  0.80430000  1.0
  O  O146  1  0.07270000  0.55600000  0.85050000  1.0
  O  O147  1  0.96770000  0.63880000  0.77910000  1.0
  O  O148  1  0.17590000  0.91950000  0.81870000  1.0
  O  O149  1  0.94300000  0.64140000  0.68530000  1.0
  O  O150  1  0.44160000  0.77150000  0.70820000  1.0
  O  O151  1  0.94290000  0.05590000  0.67790000  1.0
  O  O152  1  0.51750000  0.67330000  0.87470000  1.0
  O  O153  1  0.35610000  0.05680000  0.76130000  1.0
  O  O154  1  0.91060000  0.19730000  0.72680000  1.0
  O  O155  1  0.34330000  0.84630000  0.64360000  1.0
  O  O156  1  0.24430000  0.75700000  0.86590000  1.0
  O  O157  1  0.31730000  0.93910000  0.92430000  1.0
  O  O158  1  0.04930000  0.13880000  0.65410000  1.0
  O  O159  1  0.11320000  0.87760000  0.90990000  1.0
  O  O160  1  0.01590000  0.95350000  0.84440000  1.0
  O  O161  1  0.44200000  0.90850000  0.74450000  1.0
  O  O162  1  0.50480000  0.60260000  0.79400000  1.0
  O  O163  1  0.36130000  0.72190000  0.79510000  1.0
  O  O164  1  0.85720000  0.76210000  0.83800000  1.0
  O  O165  1  0.20440000  0.16240000  0.75690000  1.0
  O  O166  1  0.34760000  0.98260000  0.68070000  1.0
  O  O167  1  0.23290000  0.96540000  0.60860000  1.0
  O  O168  1  0.29770000  0.60170000  0.75150000  1.0
  O  O169  1  0.44200000  0.62050000  0.71110000  1.0
  O  O170  1  0.09200000  0.59830000  0.59320000  1.0
  O  O171  1  0.18590000  0.68850000  0.67460000  1.0
  O  O172  1  0.16820000  0.57280000  0.91340000  1.0
  O  O173  1  0.20290000  0.44090000  0.86660000  1.0
  O  O174  1  0.10010000  0.60300000  0.69680000  1.0
  O  O175  1  0.06850000  0.48950000  0.76910000  1.0
  O  O176  1  0.45620000  0.81750000  0.92970000  1.0
  O  O177  1  0.06280000  0.13740000  0.75360000  1.0
  O  O178  1  0.01280000  0.71160000  0.84820000  1.0
  O  O179  1  0.17170000  0.99660000  0.90830000  1.0
  O  O180  1  0.21110000  0.09080000  0.67030000  1.0
  O  O181  1  0.96650000  0.04980000  0.76850000  1.0
  O  O182  1  0.36470000  0.04020000  0.86210000  1.0
  O  O183  1  0.33760000  0.86930000  0.01590000  1.0
  O  O184  1  0.06750000  0.90260000  0.74580000  1.0
  O  O185  1  0.50690000  0.75040000  0.79200000  1.0
  O  O186  1  0.21040000  0.51580000  0.77370000  1.0
  O  O187  1  0.23760000  0.83670000  0.95440000  1.0
  O  O188  1  0.44070000  0.48510000  0.75500000  1.0
  O  O189  1  0.20560000  0.44650000  0.67980000  1.0
  O  O190  1  0.18820000  0.86340000  0.67300000  1.0
  O  O191  1  0.30320000  0.95320000  0.82290000  1.0
  O  O192  1  0.91180000  0.77480000  0.73760000  1.0
  O  O193  1  0.91640000  0.52140000  0.74450000  1.0
  O  O194  1  0.95650000  0.72740000  0.59660000  1.0
  O  O195  1  0.06910000  0.72570000  0.74640000  1.0
  O  O196  1  0.34450000  0.60560000  0.64910000  1.0
  O  O197  1  0.45200000  0.57320000  0.93510000  1.0
  O  O198  1  0.09890000  0.00250000  0.68900000  1.0
  O  O199  1  0.04640000  0.73080000  0.65650000  1.0
  O  O200  1  0.17690000  0.86370000  0.57170000  1.0
  O  O201  1  0.90730000  0.85990000  0.65930000  1.0
  O  O202  1  0.35870000  0.40640000  0.87450000  1.0
  O  O203  1  0.30030000  0.52980000  0.83260000  1.0
  O  O204  1  0.95150000  0.96610000  0.59370000  1.0
  O  O205  1  0.05250000  0.49810000  0.66490000  1.0
  O  O206  1  0.21350000  0.02150000  0.76260000  1.0
  O  O207  1  0.20900000  0.37620000  0.77180000  1.0
  O  O208  1  0.37070000  0.78780000  0.87320000  1.0
  O  O209  1  0.34880000  0.39170000  0.77360000  1.0
  O  O210  1  0.07200000  0.69000000  0.50920000  1.0
  O  O211  1  0.29520000  0.87860000  0.74630000  1.0
  O  O212  1  0.04890000  0.82130000  0.57000000  1.0
  O  O213  1  0.09240000  0.01390000  0.58630000  1.0
  O  O214  1  0.04470000  0.90860000  0.65660000  1.0
  O  O215  1  0.90980000  0.94950000  0.73410000  1.0
  O  O216  1  0.59700000  0.77620000  0.86090000  1.0
  O  O217  1  0.34320000  0.46930000  0.69260000  1.0
  O  O218  1  0.24140000  0.68670000  0.95820000  1.0
  O  O219  1  0.17780000  0.64090000  0.82400000  1.0
  O  O220  1  0.36700000  0.64970000  0.87730000  1.0
  O  O221  1  0.17660000  0.69040000  0.57490000  1.0
  O  O222  1  0.62890000  0.79070000  0.96040000  1.0
  O  O223  1  0.52950000  0.88120000  0.01200000  1.0
  O  O224  1  0.85280000  0.36570000  0.74320000  1.0
  O  O225  1  0.34020000  0.83550000  0.12820000  1.0
  O  O226  1  0.34170000  0.99360000  0.16150000  1.0
  O  O227  1  0.67090000  0.28300000  0.85530000  1.0
  O  O228  1  0.93610000  0.66350000  0.46080000  1.0
  O  O229  1  0.14670000  0.61460000  0.33980000  1.0
  O  O230  1  0.80790000  0.72100000  0.45200000  1.0
  O  O231  1  0.68430000  0.88130000  0.86090000  1.0
  O  O232  1  0.68250000  0.62950000  0.88870000  1.0
  O  O233  1  0.74780000  0.40060000  0.84300000  1.0
  O  O234  1  0.68480000  0.45750000  0.06370000  1.0
  O  O235  1  0.71320000  0.25640000  0.39500000  1.0
  O  O236  1  0.79610000  0.89000000  0.14900000  1.0
  O  O237  1  0.54480000  0.50820000  0.15340000  1.0
  O  O238  1  0.91700000  0.93410000  0.15620000  1.0
  O  O239  1  0.76590000  0.44480000  0.38560000  1.0
  O  O240  1  0.89120000  0.27260000  0.08630000  1.0
  O  O241  1  0.63290000  0.27340000  0.03140000  1.0
  O  O242  1  0.53930000  0.11140000  0.16060000  1.0
  O  O243  1  0.04050000  0.15110000  0.19570000  1.0
  O  O244  1  0.92730000  0.44400000  0.14950000  1.0
  O  O245  1  0.03230000  0.36120000  0.22090000  1.0
  O  O246  1  0.82410000  0.08050000  0.18130000  1.0
  O  O247  1  0.05700000  0.35860000  0.31470000  1.0
  O  O248  1  0.55840000  0.22850000  0.29180000  1.0
  O  O249  1  0.05710000  0.94410000  0.32210000  1.0
  O  O250  1  0.48250000  0.32670000  0.12530000  1.0
  O  O251  1  0.64390000  0.94320000  0.23870000  1.0
  O  O252  1  0.08940000  0.80270000  0.27320000  1.0
  O  O253  1  0.65670000  0.15370000  0.35640000  1.0
  O  O254  1  0.75570000  0.24300000  0.13410000  1.0
  O  O255  1  0.68270000  0.06090000  0.07570000  1.0
  O  O256  1  0.95070000  0.86120000  0.34590000  1.0
  O  O257  1  0.88680000  0.12240000  0.09010000  1.0
  O  O258  1  0.98410000  0.04650000  0.15560000  1.0
  O  O259  1  0.55800000  0.09150000  0.25550000  1.0
  O  O260  1  0.49520000  0.39740000  0.20600000  1.0
  O  O261  1  0.63870000  0.27810000  0.20490000  1.0
  O  O262  1  0.14280000  0.23790000  0.16200000  1.0
  O  O263  1  0.79560000  0.83760000  0.24310000  1.0
  O  O264  1  0.65240000  0.01740000  0.31930000  1.0
  O  O265  1  0.76710000  0.03460000  0.39140000  1.0
  O  O266  1  0.70230000  0.39830000  0.24850000  1.0
  O  O267  1  0.55800000  0.37950000  0.28890000  1.0
  O  O268  1  0.90800000  0.40170000  0.40680000  1.0
  O  O269  1  0.81410000  0.31150000  0.32540000  1.0
  O  O270  1  0.83180000  0.42720000  0.08660000  1.0
  O  O271  1  0.79710000  0.55910000  0.13340000  1.0
  O  O272  1  0.89990000  0.39700000  0.30320000  1.0
  O  O273  1  0.93150000  0.51050000  0.23090000  1.0
  O  O274  1  0.54380000  0.18250000  0.07030000  1.0
  O  O275  1  0.93720000  0.86260000  0.24640000  1.0
  O  O276  1  0.98720000  0.28840000  0.15180000  1.0
  O  O277  1  0.82830000  0.00340000  0.09170000  1.0
  O  O278  1  0.78890000  0.90920000  0.32970000  1.0
  O  O279  1  0.03350000  0.95020000  0.23150000  1.0
  O  O280  1  0.63530000  0.95980000  0.13790000  1.0
  O  O281  1  0.66240000  0.13070000  0.98410000  1.0
  O  O282  1  0.93250000  0.09740000  0.25420000  1.0
  O  O283  1  0.49310000  0.24960000  0.20800000  1.0
  O  O284  1  0.78960000  0.48420000  0.22630000  1.0
  O  O285  1  0.76240000  0.16330000  0.04560000  1.0
  O  O286  1  0.55930000  0.51490000  0.24500000  1.0
  O  O287  1  0.79440000  0.55350000  0.32020000  1.0
  O  O288  1  0.81180000  0.13660000  0.32700000  1.0
  O  O289  1  0.69680000  0.04680000  0.17710000  1.0
  O  O290  1  0.08820000  0.22520000  0.26240000  1.0
  O  O291  1  0.08360000  0.47860000  0.25550000  1.0
  O  O292  1  0.04350000  0.27260000  0.40340000  1.0
  O  O293  1  0.93090000  0.27430000  0.25360000  1.0
  O  O294  1  0.65550000  0.39440000  0.35090000  1.0
  O  O295  1  0.54800000  0.42680000  0.06490000  1.0
  O  O296  1  0.90110000  0.99750000  0.31100000  1.0
  O  O297  1  0.95360000  0.26920000  0.34350000  1.0
  O  O298  1  0.82310000  0.13630000  0.42830000  1.0
  O  O299  1  0.09270000  0.14010000  0.34070000  1.0
  O  O300  1  0.64130000  0.59360000  0.12550000  1.0
  O  O301  1  0.69970000  0.47020000  0.16740000  1.0
  O  O302  1  0.04850000  0.03390000  0.40630000  1.0
  O  O303  1  0.94750000  0.50190000  0.33510000  1.0
  O  O304  1  0.78650000  0.97850000  0.23740000  1.0
  O  O305  1  0.79100000  0.62380000  0.22820000  1.0
  O  O306  1  0.62930000  0.21220000  0.12680000  1.0
  O  O307  1  0.65120000  0.60830000  0.22640000  1.0
  O  O308  1  0.92800000  0.31000000  0.49080000  1.0
  O  O309  1  0.70480000  0.12140000  0.25370000  1.0
  O  O310  1  0.95110000  0.17870000  0.43000000  1.0
  O  O311  1  0.90760000  0.98610000  0.41370000  1.0
  O  O312  1  0.95530000  0.09140000  0.34340000  1.0
  O  O313  1  0.09020000  0.05050000  0.26590000  1.0
  O  O314  1  0.40300000  0.22380000  0.13910000  1.0
  O  O315  1  0.65680000  0.53070000  0.30740000  1.0
  O  O316  1  0.75860000  0.31330000  0.04180000  1.0
  O  O317  1  0.82220000  0.35910000  0.17600000  1.0
  O  O318  1  0.63300000  0.35030000  0.12270000  1.0
  O  O319  1  0.82340000  0.30960000  0.42510000  1.0
  O  O320  1  0.37110000  0.20930000  0.03960000  1.0
  O  O321  1  0.47050000  0.11880000  0.98800000  1.0
  O  O322  1  0.14720000  0.63430000  0.25680000  1.0
  O  O323  1  0.65980000  0.16450000  0.87180000  1.0
  O  O324  1  0.65830000  0.00640000  0.83850000  1.0
  O  O325  1  0.32910000  0.71700000  0.14470000  1.0
  O  O326  1  0.06390000  0.33650000  0.53920000  1.0
  O  O327  1  0.85330000  0.38540000  0.66020000  1.0
  O  O328  1  0.19210000  0.27900000  0.54800000  1.0
  O  O329  1  0.31570000  0.11870000  0.13910000  1.0
  O  O330  1  0.31750000  0.37050000  0.11130000  1.0
  O  O331  1  0.25220000  0.59940000  0.15700000  1.0
