# generated using pymatgen
data_Ce2AsP2H4W11C2O35
_symmetry_space_group_name_H-M   'P 1'
_cell_length_a   15.11500000
_cell_length_b   16.25600000
_cell_length_c   27.42100000
_cell_angle_alpha   90.00000000
_cell_angle_beta   105.52100000
_cell_angle_gamma   90.00000000
_symmetry_Int_Tables_number   1
_chemical_formula_structural   Ce2AsP2H4W11C2O35
_chemical_formula_sum   'Ce8 As4 P8 H16 W44 C8 O140'
_cell_volume   6491.89477811
_cell_formula_units_Z   4
loop_
 _symmetry_equiv_pos_site_id
 _symmetry_equiv_pos_as_xyz
  1  'x, y, z'
loop_
 _atom_site_type_symbol
 _atom_site_label
 _atom_site_symmetry_multiplicity
 _atom_site_fract_x
 _atom_site_fract_y
 _atom_site_fract_z
 _atom_site_occupancy
  Ce  Ce0  1  0.80257000  0.56681000  0.52513000  1.0
  Ce  Ce1  1  0.65082000  0.72140000  0.26537000  1.0
  Ce  Ce2  1  0.19743000  0.06681000  0.97487000  1.0
  Ce  Ce3  1  0.34918000  0.22140000  0.23463000  1.0
  Ce  Ce4  1  0.19743000  0.43319000  0.47487000  1.0
  Ce  Ce5  1  0.34918000  0.27860000  0.73463000  1.0
  Ce  Ce6  1  0.80257000  0.93319000  0.02513000  1.0
  Ce  Ce7  1  0.65082000  0.77860000  0.76537000  1.0
  As  As8  1  0.75656000  0.32404000  0.52625000  1.0
  As  As9  1  0.24344000  0.82404000  0.97375000  1.0
  As  As10  1  0.24344000  0.67596000  0.47375000  1.0
  As  As11  1  0.75656000  0.17596000  0.02625000  1.0
  P  P12  1  0.51410000  0.56890000  0.32260000  1.0
  P  P13  1  0.41210000  0.41250000  0.31638000  1.0
  P  P14  1  0.48590000  0.06890000  0.17740000  1.0
  P  P15  1  0.58790000  0.91250000  0.18362000  1.0
  P  P16  1  0.48590000  0.43110000  0.67740000  1.0
  P  P17  1  0.58790000  0.58750000  0.68362000  1.0
  P  P18  1  0.51410000  0.93110000  0.82260000  1.0
  P  P19  1  0.41210000  0.08750000  0.81638000  1.0
  H  H20  1  0.49260000  0.41610000  0.23750000  1.0
  H  H21  1  0.33040000  0.54860000  0.26000000  1.0
  H  H22  1  0.39350000  0.56900000  0.22460000  1.0
  H  H23  1  0.34150000  0.48470000  0.21930000  1.0
  H  H24  1  0.50740000  0.91610000  0.26250000  1.0
  H  H25  1  0.66960000  0.04860000  0.24000000  1.0
  H  H26  1  0.60650000  0.06900000  0.27540000  1.0
  H  H27  1  0.65850000  0.98470000  0.28070000  1.0
  H  H28  1  0.50740000  0.58390000  0.76250000  1.0
  H  H29  1  0.66960000  0.45140000  0.74000000  1.0
  H  H30  1  0.60650000  0.43100000  0.77540000  1.0
  H  H31  1  0.65850000  0.51530000  0.78070000  1.0
  H  H32  1  0.49260000  0.08390000  0.73750000  1.0
  H  H33  1  0.33040000  0.95140000  0.76000000  1.0
  H  H34  1  0.39350000  0.93100000  0.72460000  1.0
  H  H35  1  0.34150000  0.01530000  0.71930000  1.0
  W  W36  1  0.56240000  0.22729000  0.44887000  1.0
  W  W37  1  0.75113000  0.28263000  0.39117000  1.0
  W  W38  1  0.58493000  0.23634000  0.57315000  1.0
  W  W39  1  0.93225000  0.36782000  0.47550000  1.0
  W  W40  1  0.89549000  0.16144000  0.47599000  1.0
  W  W41  1  0.95731000  0.37700000  0.61041000  1.0
  W  W42  1  0.80011000  0.30473000  0.66585000  1.0
  W  W43  1  0.70440000  0.09674000  0.52677000  1.0
  W  W44  1  0.91777000  0.17073000  0.61414000  1.0
  W  W45  1  0.59538000  0.44028000  0.41621000  1.0
  W  W46  1  0.37359000  0.54607000  0.39828000  1.0
  W  W47  1  0.43760000  0.72729000  0.05113000  1.0
  W  W48  1  0.24887000  0.78263000  0.10883000  1.0
  W  W49  1  0.41507000  0.73634000  0.92685000  1.0
  W  W50  1  0.06775000  0.86782000  0.02450000  1.0
  W  W51  1  0.10451000  0.66144000  0.02401000  1.0
  W  W52  1  0.04269000  0.87700000  0.88959000  1.0
  W  W53  1  0.19989000  0.80473000  0.83415000  1.0
  W  W54  1  0.29560000  0.59674000  0.97323000  1.0
  W  W55  1  0.08223000  0.67073000  0.88586000  1.0
  W  W56  1  0.40462000  0.94028000  0.08379000  1.0
  W  W57  1  0.62641000  0.04607000  0.10172000  1.0
  W  W58  1  0.43760000  0.77271000  0.55113000  1.0
  W  W59  1  0.24887000  0.71737000  0.60883000  1.0
  W  W60  1  0.41507000  0.76366000  0.42685000  1.0
  W  W61  1  0.06775000  0.63218000  0.52450000  1.0
  W  W62  1  0.10451000  0.83856000  0.52401000  1.0
  W  W63  1  0.04269000  0.62300000  0.38959000  1.0
  W  W64  1  0.19989000  0.69527000  0.33415000  1.0
  W  W65  1  0.29560000  0.90326000  0.47323000  1.0
  W  W66  1  0.08223000  0.82927000  0.38586000  1.0
  W  W67  1  0.40462000  0.55972000  0.58379000  1.0
  W  W68  1  0.62641000  0.45393000  0.60172000  1.0
  W  W69  1  0.56240000  0.27271000  0.94887000  1.0
  W  W70  1  0.75113000  0.21737000  0.89117000  1.0
  W  W71  1  0.58493000  0.26366000  0.07315000  1.0
  W  W72  1  0.93225000  0.13218000  0.97550000  1.0
  W  W73  1  0.89549000  0.33856000  0.97599000  1.0
  W  W74  1  0.95731000  0.12300000  0.11041000  1.0
  W  W75  1  0.80011000  0.19527000  0.16585000  1.0
  W  W76  1  0.70440000  0.40326000  0.02677000  1.0
  W  W77  1  0.91777000  0.32927000  0.11414000  1.0
  W  W78  1  0.59538000  0.05972000  0.91621000  1.0
  W  W79  1  0.37359000  0.95393000  0.89828000  1.0
  C  C80  1  0.44950000  0.48990000  0.27900000  1.0
  C  C81  1  0.37230000  0.52610000  0.24270000  1.0
  C  C82  1  0.55050000  0.98990000  0.22100000  1.0
  C  C83  1  0.62770000  0.02610000  0.25730000  1.0
  C  C84  1  0.55050000  0.51010000  0.72100000  1.0
  C  C85  1  0.62770000  0.47390000  0.75730000  1.0
  C  C86  1  0.44950000  0.01010000  0.77900000  1.0
  C  C87  1  0.37230000  0.97390000  0.74270000  1.0
  O  O88  1  0.68490000  0.38410000  0.39290000  1.0
  O  O89  1  0.91090000  0.36390000  0.67090000  1.0
  O  O90  1  0.81770000  0.28630000  0.48280000  1.0
  O  O91  1  0.50020000  0.38060000  0.35430000  1.0
  O  O92  1  0.93360000  0.16030000  0.54790000  1.0
  O  O93  1  0.35010000  0.45870000  0.34380000  1.0
  O  O94  1  0.48700000  0.49370000  0.42450000  1.0
  O  O95  1  0.61310000  0.12620000  0.56590000  1.0
  O  O96  1  0.40340000  0.64370000  0.43350000  1.0
  O  O97  1  0.85960000  0.34420000  0.40600000  1.0
  O  O98  1  0.83430000  0.29390000  0.58510000  1.0
  O  O99  1  0.87040000  0.45420000  0.48170000  1.0
  O  O100  1  0.44200000  0.60390000  0.34830000  1.0
  O  O101  1  0.86400000  0.20550000  0.66680000  1.0
  O  O102  1  0.97320000  0.24620000  0.47090000  1.0
  O  O103  1  0.78010000  0.11160000  0.48610000  1.0
  O  O104  1  0.50980000  0.24000000  0.50430000  1.0
  O  O105  1  0.68440000  0.23600000  0.52160000  1.0
  O  O106  1  0.97890000  0.34930000  0.54620000  1.0
  O  O107  1  0.57440000  0.34870000  0.45120000  1.0
  O  O108  1  0.65410000  0.23460000  0.41240000  1.0
  O  O109  1  0.59470000  0.52350000  0.36250000  1.0
  O  O110  1  0.81670000  0.18400000  0.40890000  1.0
  O  O111  1  0.99920000  0.25640000  0.62850000  1.0
  O  O112  1  0.79730000  0.11720000  0.58340000  1.0
  O  O113  1  0.35920000  0.34690000  0.28170000  1.0
  O  O114  1  0.26610000  0.59730000  0.35670000  1.0
  O  O115  1  0.67480000  0.49250000  0.46400000  1.0
  O  O116  1  0.88480000  0.46070000  0.58540000  1.0
  O  O117  1  0.69020000  0.25010000  0.62890000  1.0
  O  O118  1  0.03120000  0.40600000  0.46150000  1.0
  O  O119  1  0.31630000  0.49660000  0.43580000  1.0
  O  O120  1  0.55340000  0.63100000  0.29360000  1.0
  O  O121  1  0.59520000  0.12140000  0.46730000  1.0
  O  O122  1  0.51620000  0.45430000  0.25590000  1.0
  O  O123  1  0.31510000  0.88410000  0.10710000  1.0
  O  O124  1  0.08910000  0.86390000  0.82910000  1.0
  O  O125  1  0.18230000  0.78630000  0.01720000  1.0
  O  O126  1  0.49980000  0.88060000  0.14570000  1.0
  O  O127  1  0.06640000  0.66030000  0.95210000  1.0
  O  O128  1  0.64990000  0.95870000  0.15620000  1.0
  O  O129  1  0.51300000  0.99370000  0.07550000  1.0
  O  O130  1  0.38690000  0.62620000  0.93410000  1.0
  O  O131  1  0.59660000  0.14370000  0.06650000  1.0
  O  O132  1  0.14040000  0.84420000  0.09400000  1.0
  O  O133  1  0.16570000  0.79390000  0.91490000  1.0
  O  O134  1  0.12960000  0.95420000  0.01830000  1.0
  O  O135  1  0.55800000  0.10390000  0.15170000  1.0
  O  O136  1  0.13600000  0.70550000  0.83320000  1.0
  O  O137  1  0.02680000  0.74620000  0.02910000  1.0
  O  O138  1  0.21990000  0.61160000  0.01390000  1.0
  O  O139  1  0.49020000  0.74000000  0.99570000  1.0
  O  O140  1  0.31560000  0.73600000  0.97840000  1.0
  O  O141  1  0.02110000  0.84930000  0.95380000  1.0
  O  O142  1  0.42560000  0.84870000  0.04880000  1.0
  O  O143  1  0.34590000  0.73460000  0.08760000  1.0
  O  O144  1  0.40530000  0.02350000  0.13750000  1.0
  O  O145  1  0.18330000  0.68400000  0.09110000  1.0
  O  O146  1  0.00080000  0.75640000  0.87150000  1.0
  O  O147  1  0.20270000  0.61720000  0.91660000  1.0
  O  O148  1  0.64080000  0.84690000  0.21830000  1.0
  O  O149  1  0.73390000  0.09730000  0.14330000  1.0
  O  O150  1  0.32520000  0.99250000  0.03600000  1.0
  O  O151  1  0.11520000  0.96070000  0.91460000  1.0
  O  O152  1  0.30980000  0.75010000  0.87110000  1.0
  O  O153  1  0.96880000  0.90600000  0.03850000  1.0
  O  O154  1  0.68370000  0.99660000  0.06420000  1.0
  O  O155  1  0.44660000  0.13100000  0.20640000  1.0
  O  O156  1  0.40480000  0.62140000  0.03270000  1.0
  O  O157  1  0.48380000  0.95430000  0.24410000  1.0
  O  O158  1  0.31510000  0.61590000  0.60710000  1.0
  O  O159  1  0.08910000  0.63610000  0.32910000  1.0
  O  O160  1  0.18230000  0.71370000  0.51720000  1.0
  O  O161  1  0.49980000  0.61940000  0.64570000  1.0
  O  O162  1  0.06640000  0.83970000  0.45210000  1.0
  O  O163  1  0.64990000  0.54130000  0.65620000  1.0
  O  O164  1  0.51300000  0.50630000  0.57550000  1.0
  O  O165  1  0.38690000  0.87380000  0.43410000  1.0
  O  O166  1  0.59660000  0.35630000  0.56650000  1.0
  O  O167  1  0.14040000  0.65580000  0.59400000  1.0
  O  O168  1  0.16570000  0.70610000  0.41490000  1.0
  O  O169  1  0.12960000  0.54580000  0.51830000  1.0
  O  O170  1  0.55800000  0.39610000  0.65170000  1.0
  O  O171  1  0.13600000  0.79450000  0.33320000  1.0
  O  O172  1  0.02680000  0.75380000  0.52910000  1.0
  O  O173  1  0.21990000  0.88840000  0.51390000  1.0
  O  O174  1  0.49020000  0.76000000  0.49570000  1.0
  O  O175  1  0.31560000  0.76400000  0.47840000  1.0
  O  O176  1  0.02110000  0.65070000  0.45380000  1.0
  O  O177  1  0.42560000  0.65130000  0.54880000  1.0
  O  O178  1  0.34590000  0.76540000  0.58760000  1.0
  O  O179  1  0.40530000  0.47650000  0.63750000  1.0
  O  O180  1  0.18330000  0.81600000  0.59110000  1.0
  O  O181  1  0.00080000  0.74360000  0.37150000  1.0
  O  O182  1  0.20270000  0.88280000  0.41660000  1.0
  O  O183  1  0.64080000  0.65310000  0.71830000  1.0
  O  O184  1  0.73390000  0.40270000  0.64330000  1.0
  O  O185  1  0.32520000  0.50750000  0.53600000  1.0
  O  O186  1  0.11520000  0.53930000  0.41460000  1.0
  O  O187  1  0.30980000  0.74990000  0.37110000  1.0
  O  O188  1  0.96880000  0.59400000  0.53850000  1.0
  O  O189  1  0.68370000  0.50340000  0.56420000  1.0
  O  O190  1  0.44660000  0.36900000  0.70640000  1.0
  O  O191  1  0.40480000  0.87860000  0.53270000  1.0
  O  O192  1  0.48380000  0.54570000  0.74410000  1.0
  O  O193  1  0.68490000  0.11590000  0.89290000  1.0
  O  O194  1  0.91090000  0.13610000  0.17090000  1.0
  O  O195  1  0.81770000  0.21370000  0.98280000  1.0
  O  O196  1  0.50020000  0.11940000  0.85430000  1.0
  O  O197  1  0.93360000  0.33970000  0.04790000  1.0
  O  O198  1  0.35010000  0.04130000  0.84380000  1.0
  O  O199  1  0.48700000  0.00630000  0.92450000  1.0
  O  O200  1  0.61310000  0.37380000  0.06590000  1.0
  O  O201  1  0.40340000  0.85630000  0.93350000  1.0
  O  O202  1  0.85960000  0.15580000  0.90600000  1.0
  O  O203  1  0.83430000  0.20610000  0.08510000  1.0
  O  O204  1  0.87040000  0.04580000  0.98170000  1.0
  O  O205  1  0.44200000  0.89610000  0.84830000  1.0
  O  O206  1  0.86400000  0.29450000  0.16680000  1.0
  O  O207  1  0.97320000  0.25380000  0.97090000  1.0
  O  O208  1  0.78010000  0.38840000  0.98610000  1.0
  O  O209  1  0.50980000  0.26000000  0.00430000  1.0
  O  O210  1  0.68440000  0.26400000  0.02160000  1.0
  O  O211  1  0.97890000  0.15070000  0.04620000  1.0
  O  O212  1  0.57440000  0.15130000  0.95120000  1.0
  O  O213  1  0.65410000  0.26540000  0.91240000  1.0
  O  O214  1  0.59470000  0.97650000  0.86250000  1.0
  O  O215  1  0.81670000  0.31600000  0.90890000  1.0
  O  O216  1  0.99920000  0.24360000  0.12850000  1.0
  O  O217  1  0.79730000  0.38280000  0.08340000  1.0
  O  O218  1  0.35920000  0.15310000  0.78170000  1.0
  O  O219  1  0.26610000  0.90270000  0.85670000  1.0
  O  O220  1  0.67480000  0.00750000  0.96400000  1.0
  O  O221  1  0.88480000  0.03930000  0.08540000  1.0
  O  O222  1  0.69020000  0.24990000  0.12890000  1.0
  O  O223  1  0.03120000  0.09400000  0.96150000  1.0
  O  O224  1  0.31630000  0.00340000  0.93580000  1.0
  O  O225  1  0.55340000  0.86900000  0.79360000  1.0
  O  O226  1  0.59520000  0.37860000  0.96730000  1.0
  O  O227  1  0.51620000  0.04570000  0.75590000  1.0
