# generated using pymatgen
data_AlH5C8O5
_symmetry_space_group_name_H-M   'P 1'
_cell_length_a   6.56030000
_cell_length_b   15.98460000
_cell_length_c   13.44410000
_cell_angle_alpha   90.00000000
_cell_angle_beta   90.00000000
_cell_angle_gamma   90.00000000
_symmetry_Int_Tables_number   1
_chemical_formula_structural   AlH5C8O5
_chemical_formula_sum   'Al4 H20 C32 O20'
_cell_volume   1409.79902881
_cell_formula_units_Z   4
loop_
 _symmetry_equiv_pos_site_id
 _symmetry_equiv_pos_as_xyz
  1  'x, y, z'
loop_
 _atom_site_type_symbol
 _atom_site_label
 _atom_site_symmetry_multiplicity
 _atom_site_fract_x
 _atom_site_fract_y
 _atom_site_fract_z
 _atom_site_occupancy
  Al  Al0  1  0.74492000  0.00313000  0.24597000  1.0
  Al  Al1  1  0.24402000  0.50270000  0.74610000  1.0
  Al  Al2  1  0.24461000  0.00306000  0.24645000  1.0
  Al  Al3  1  0.74482000  0.50292000  0.74655000  1.0
  H  H4  1  0.17045000  0.80599000  0.43035000  1.0
  H  H5  1  0.17014000  0.68583000  0.54288000  1.0
  H  H6  1  0.66997000  0.30625000  0.93116000  1.0
  H  H7  1  0.67067000  0.18595000  0.04338000  1.0
  H  H8  1  0.82387000  0.19573000  0.43623000  1.0
  H  H9  1  0.82375000  0.31627000  0.54840000  1.0
  H  H10  1  0.32367000  0.69653000  0.93516000  1.0
  H  H11  1  0.32384000  0.81644000  0.04830000  1.0
  H  H12  1  0.16702000  0.19604000  0.43588000  1.0
  H  H13  1  0.16690000  0.31670000  0.54784000  1.0
  H  H14  1  0.66679000  0.69667000  0.93499000  1.0
  H  H15  1  0.66716000  0.81668000  0.04790000  1.0
  H  H16  1  0.82749000  0.80599000  0.43057000  1.0
  H  H17  1  0.82673000  0.68567000  0.54345000  1.0
  H  H18  1  0.32689000  0.30655000  0.93093000  1.0
  H  H19  1  0.32701000  0.18606000  0.04347000  1.0
  H  H20  1  0.99276000  0.50377000  0.62882000  1.0
  H  H21  1  0.49297000  0.50424000  0.86374000  1.0
  H  H22  1  0.49552000  0.00573000  0.12915000  1.0
  H  H23  1  0.99484000  0.00542000  0.36402000  1.0
  C  C24  1  0.31443000  0.78080000  0.45533000  1.0
  C  C25  1  0.31412000  0.71188000  0.51963000  1.0
  C  C26  1  0.81389000  0.28106000  0.95609000  1.0
  C  C27  1  0.81433000  0.21211000  0.02018000  1.0
  C  C28  1  0.67963000  0.22083000  0.46092000  1.0
  C  C29  1  0.67966000  0.28995000  0.52495000  1.0
  C  C30  1  0.17957000  0.72140000  0.96020000  1.0
  C  C31  1  0.17980000  0.79032000  0.02447000  1.0
  C  C32  1  0.31128000  0.22104000  0.46067000  1.0
  C  C33  1  0.31109000  0.29015000  0.52475000  1.0
  C  C34  1  0.81110000  0.72149000  0.96003000  1.0
  C  C35  1  0.81118000  0.79041000  0.02433000  1.0
  C  C36  1  0.68293000  0.78079000  0.45556000  1.0
  C  C37  1  0.68242000  0.71173000  0.51994000  1.0
  C  C38  1  0.18257000  0.28125000  0.95596000  1.0
  C  C39  1  0.18273000  0.21216000  0.02013000  1.0
  C  C40  1  0.49777000  0.67774000  0.55476000  1.0
  C  C41  1  0.49868000  0.81729000  0.42412000  1.0
  C  C42  1  0.49711000  0.60849000  0.62870000  1.0
  C  C43  1  0.49825000  0.89157000  0.35713000  1.0
  C  C44  1  0.99846000  0.17810000  0.05512000  1.0
  C  C45  1  0.99778000  0.31763000  0.92475000  1.0
  C  C46  1  0.99787000  0.10874000  0.12894000  1.0
  C  C47  1  0.99711000  0.39186000  0.85769000  1.0
  C  C48  1  0.49553000  0.32474000  0.55871000  1.0
  C  C49  1  0.49552000  0.18493000  0.42861000  1.0
  C  C50  1  0.49571000  0.39517000  0.63091000  1.0
  C  C51  1  0.49518000  0.11172000  0.36008000  1.0
  C  C52  1  0.99560000  0.82489000  0.05855000  1.0
  C  C53  1  0.99547000  0.68558000  0.92769000  1.0
  C  C54  1  0.99529000  0.89519000  0.13114000  1.0
  C  C55  1  0.99566000  0.61228000  0.85908000  1.0
  O  O56  1  0.67103000  0.92167000  0.32894000  1.0
  O  O57  1  0.32415000  0.58019000  0.65930000  1.0
  O  O58  1  0.17001000  0.42137000  0.82924000  1.0
  O  O59  1  0.82478000  0.08084000  0.15944000  1.0
  O  O60  1  0.32219000  0.08221000  0.33171000  1.0
  O  O61  1  0.66786000  0.42340000  0.66193000  1.0
  O  O62  1  0.82201000  0.58251000  0.83135000  1.0
  O  O63  1  0.16814000  0.92345000  0.16185000  1.0
  O  O64  1  0.66783000  0.08220000  0.33109000  1.0
  O  O65  1  0.32280000  0.42401000  0.66023000  1.0
  O  O66  1  0.16857000  0.58292000  0.82988000  1.0
  O  O67  1  0.82210000  0.92390000  0.16063000  1.0
  O  O68  1  0.32503000  0.92179000  0.32948000  1.0
  O  O69  1  0.67036000  0.58076000  0.65937000  1.0
  O  O70  1  0.82455000  0.42236000  0.82992000  1.0
  O  O71  1  0.17042000  0.08071000  0.15975000  1.0
  O  O72  1  0.99486000  0.00467000  0.29987000  1.0
  O  O73  1  0.49404000  0.50392000  0.79971000  1.0
  O  O74  1  0.49525000  0.00479000  0.19327000  1.0
  O  O75  1  0.99393000  0.50371000  0.69305000  1.0
