# generated using pymatgen
data_Zn5P5H30C30(N3O10)2
_symmetry_space_group_name_H-M   'P 1'
_cell_length_a   10.02390000
_cell_length_b   10.07970000
_cell_length_c   23.57260000
_cell_angle_alpha   77.71300000
_cell_angle_beta   79.76600000
_cell_angle_gamma   88.76800000
_symmetry_Int_Tables_number   1
_chemical_formula_structural   Zn5P5H30C30(N3O10)2
_chemical_formula_sum   'Zn10 P10 H60 C60 N12 O40'
_cell_volume   2289.81613603
_cell_formula_units_Z   2
loop_
 _symmetry_equiv_pos_site_id
 _symmetry_equiv_pos_as_xyz
  1  'x, y, z'
loop_
 _atom_site_type_symbol
 _atom_site_label
 _atom_site_symmetry_multiplicity
 _atom_site_fract_x
 _atom_site_fract_y
 _atom_site_fract_z
 _atom_site_occupancy
  Zn  Zn0  1  0.60330000  0.24890000  0.20620000  1.0
  Zn  Zn1  1  0.26210000  0.92900000  0.29140000  1.0
  Zn  Zn2  1  0.57820000  0.61330000  0.25110000  1.0
  Zn  Zn3  1  0.89490000  0.94490000  0.24630000  1.0
  Zn  Zn4  1  0.08150000  0.43660000  0.24690000  1.0
  Zn  Zn5  1  0.39670000  0.75110000  0.79380000  1.0
  Zn  Zn6  1  0.73790000  0.07100000  0.70860000  1.0
  Zn  Zn7  1  0.42180000  0.38670000  0.74890000  1.0
  Zn  Zn8  1  0.10510000  0.05510000  0.75370000  1.0
  Zn  Zn9  1  0.91850000  0.56340000  0.75310000  1.0
  P  P10  1  0.82500000  0.46700000  0.18510000  1.0
  P  P11  1  0.05300000  0.68700000  0.31560000  1.0
  P  P12  1  0.02600000  0.13000000  0.31380000  1.0
  P  P13  1  0.58000000  0.93400000  0.25130000  1.0
  P  P14  1  0.38900000  0.46900000  0.17720000  1.0
  P  P15  1  0.17500000  0.53300000  0.81490000  1.0
  P  P16  1  0.94700000  0.31300000  0.68440000  1.0
  P  P17  1  0.97400000  0.87000000  0.68620000  1.0
  P  P18  1  0.42000000  0.06600000  0.74870000  1.0
  P  P19  1  0.61100000  0.53100000  0.82280000  1.0
  H  H20  1  0.73340000  0.53420000  0.34850000  1.0
  H  H21  1  0.71040000  0.48410000  0.44920000  1.0
  H  H22  1  0.34540000  0.59990000  0.35790000  1.0
  H  H23  1  0.35100000  0.27570000  0.29410000  1.0
  H  H24  1  0.28370000  0.25110000  0.39340000  1.0
  H  H25  1  0.93160000  0.76970000  0.15570000  1.0
  H  H26  1  0.97610000  0.78690000  0.05620000  1.0
  H  H27  1  0.26610000  0.16400000  0.19240000  1.0
  H  H28  1  0.26390000  0.77600000  0.19560000  1.0
  H  H29  1  0.61120000  0.13890000  0.50160000  1.0
  H  H30  1  0.23050000  0.24030000  0.48290000  1.0
  H  H31  1  0.94580000  0.16440000  0.13580000  1.0
  H  H32  1  0.99180000  0.19000000  0.03540000  1.0
  H  H33  1  0.31390000  0.55670000  0.45900000  1.0
  H  H34  1  0.67190000  0.18900000  0.41200000  1.0
  H  H35  1  0.72670000  0.21690000  0.31210000  1.0
  H  H36  1  0.29820000  0.21410000  0.09190000  1.0
  H  H37  1  0.54150000  0.09560000  0.60240000  1.0
  H  H38  1  0.16970000  0.19540000  0.58380000  1.0
  H  H39  1  0.39870000  0.29520000  0.90100000  1.0
  H  H40  1  0.35700000  0.25310000  0.00210000  1.0
  H  H41  1  0.35660000  0.90970000  0.90270000  1.0
  H  H42  1  0.31530000  0.85860000  0.00490000  1.0
  H  H43  1  0.31200000  0.81660000  0.09350000  1.0
  H  H44  1  0.39310000  0.13480000  0.85420000  1.0
  H  H45  1  0.33100000  0.12150000  0.63890000  1.0
  H  H46  1  0.95280000  0.03110000  0.40080000  1.0
  H  H47  1  0.01670000  0.62320000  0.40330000  1.0
  H  H48  1  0.84600000  0.54770000  0.09990000  1.0
  H  H49  1  0.28870000  0.53400000  0.10020000  1.0
  H  H50  1  0.26660000  0.46580000  0.65150000  1.0
  H  H51  1  0.28960000  0.51590000  0.55080000  1.0
  H  H52  1  0.65460000  0.40010000  0.64210000  1.0
  H  H53  1  0.64900000  0.72430000  0.70590000  1.0
  H  H54  1  0.71630000  0.74890000  0.60660000  1.0
  H  H55  1  0.06840000  0.23030000  0.84430000  1.0
  H  H56  1  0.02390000  0.21310000  0.94380000  1.0
  H  H57  1  0.73390000  0.83600000  0.80760000  1.0
  H  H58  1  0.73610000  0.22400000  0.80440000  1.0
  H  H59  1  0.38880000  0.86110000  0.49840000  1.0
  H  H60  1  0.76950000  0.75970000  0.51710000  1.0
  H  H61  1  0.05420000  0.83560000  0.86420000  1.0
  H  H62  1  0.00820000  0.81000000  0.96460000  1.0
  H  H63  1  0.68610000  0.44330000  0.54100000  1.0
  H  H64  1  0.32810000  0.81100000  0.58800000  1.0
  H  H65  1  0.27330000  0.78310000  0.68790000  1.0
  H  H66  1  0.70180000  0.78590000  0.90810000  1.0
  H  H67  1  0.45850000  0.90440000  0.39760000  1.0
  H  H68  1  0.83030000  0.80460000  0.41620000  1.0
  H  H69  1  0.60130000  0.70480000  0.09900000  1.0
  H  H70  1  0.64300000  0.74690000  0.99790000  1.0
  H  H71  1  0.64340000  0.09030000  0.09730000  1.0
  H  H72  1  0.68470000  0.14140000  0.99510000  1.0
  H  H73  1  0.68800000  0.18340000  0.90650000  1.0
  H  H74  1  0.60690000  0.86520000  0.14580000  1.0
  H  H75  1  0.66900000  0.87850000  0.36110000  1.0
  H  H76  1  0.04720000  0.96890000  0.59920000  1.0
  H  H77  1  0.98330000  0.37680000  0.59670000  1.0
  H  H78  1  0.15400000  0.45230000  0.90010000  1.0
  H  H79  1  0.71130000  0.46600000  0.89980000  1.0
  C  C80  1  0.64800000  0.53800000  0.37100000  1.0
  C  C81  1  0.63500000  0.50900000  0.43200000  1.0
  C  C82  1  0.42000000  0.57700000  0.37600000  1.0
  C  C83  1  0.41600000  0.25800000  0.31800000  1.0
  C  C84  1  0.37500000  0.24300000  0.37800000  1.0
  C  C85  1  0.47000000  0.21600000  0.41500000  1.0
  C  C86  1  0.42700000  0.19300000  0.48000000  1.0
  C  C87  1  0.94300000  0.85600000  0.13100000  1.0
  C  C88  1  0.97000000  0.86500000  0.07100000  1.0
  C  C89  1  0.98700000  0.99200000  0.03300000  1.0
  C  C90  1  0.27400000  0.09300000  0.17200000  1.0
  C  C91  1  0.27500000  0.86500000  0.17400000  1.0
  C  C92  1  0.52100000  0.15000000  0.51700000  1.0
  C  C93  1  0.29500000  0.21000000  0.50600000  1.0
  C  C94  1  0.95200000  0.08700000  0.12000000  1.0
  C  C95  1  0.97900000  0.10300000  0.05900000  1.0
  C  C96  1  0.30400000  0.02000000  0.08100000  1.0
  C  C97  1  0.40000000  0.55100000  0.43800000  1.0
  C  C98  1  0.60500000  0.20700000  0.38900000  1.0
  C  C99  1  0.32900000  0.05100000  0.01600000  1.0
  C  C100  1  0.63600000  0.22400000  0.32900000  1.0
  C  C101  1  0.29300000  0.12400000  0.11200000  1.0
  C  C102  1  0.48000000  0.12400000  0.57700000  1.0
  C  C103  1  0.25900000  0.18400000  0.56700000  1.0
  C  C104  1  0.38000000  0.20700000  0.92200000  1.0
  C  C105  1  0.35600000  0.18200000  0.98300000  1.0
  C  C106  1  0.35600000  0.97900000  0.92300000  1.0
  C  C107  1  0.33100000  0.94800000  0.98500000  1.0
  C  C108  1  0.50900000  0.51600000  0.46700000  1.0
  C  C109  1  0.29900000  0.88900000  0.11300000  1.0
  C  C110  1  0.35200000  0.46200000  0.62900000  1.0
  C  C111  1  0.36500000  0.49100000  0.56800000  1.0
  C  C112  1  0.58000000  0.42300000  0.62400000  1.0
  C  C113  1  0.58400000  0.74200000  0.68200000  1.0
  C  C114  1  0.62500000  0.75700000  0.62200000  1.0
  C  C115  1  0.53000000  0.78400000  0.58500000  1.0
  C  C116  1  0.57300000  0.80700000  0.52000000  1.0
  C  C117  1  0.05700000  0.14400000  0.86900000  1.0
  C  C118  1  0.03000000  0.13500000  0.92900000  1.0
  C  C119  1  0.01300000  0.00800000  0.96700000  1.0
  C  C120  1  0.72600000  0.90700000  0.82800000  1.0
  C  C121  1  0.72500000  0.13500000  0.82600000  1.0
  C  C122  1  0.47900000  0.85000000  0.48300000  1.0
  C  C123  1  0.70500000  0.79000000  0.49400000  1.0
  C  C124  1  0.04800000  0.91300000  0.88000000  1.0
  C  C125  1  0.02100000  0.89700000  0.94100000  1.0
  C  C126  1  0.69600000  0.98000000  0.91900000  1.0
  C  C127  1  0.60000000  0.44900000  0.56200000  1.0
  C  C128  1  0.39500000  0.79300000  0.61100000  1.0
  C  C129  1  0.67100000  0.94900000  0.98400000  1.0
  C  C130  1  0.36400000  0.77600000  0.67100000  1.0
  C  C131  1  0.70700000  0.87600000  0.88800000  1.0
  C  C132  1  0.52000000  0.87600000  0.42300000  1.0
  C  C133  1  0.74100000  0.81600000  0.43300000  1.0
  C  C134  1  0.62000000  0.79300000  0.07800000  1.0
  C  C135  1  0.64400000  0.81800000  0.01700000  1.0
  C  C136  1  0.64400000  0.02100000  0.07700000  1.0
  C  C137  1  0.66900000  0.05200000  0.01500000  1.0
  C  C138  1  0.49100000  0.48400000  0.53300000  1.0
  C  C139  1  0.70100000  0.11100000  0.88700000  1.0
  N  N140  1  0.37800000  0.10600000  0.89400000  1.0
  N  N141  1  0.93300000  0.96400000  0.15700000  1.0
  N  N142  1  0.54300000  0.57200000  0.34300000  1.0
  N  N143  1  0.54700000  0.24900000  0.29300000  1.0
  N  N144  1  0.26600000  0.96500000  0.20400000  1.0
  N  N145  1  0.35000000  0.14100000  0.60000000  1.0
  N  N146  1  0.62200000  0.89400000  0.10600000  1.0
  N  N147  1  0.06700000  0.03600000  0.84300000  1.0
  N  N148  1  0.45700000  0.42800000  0.65700000  1.0
  N  N149  1  0.45300000  0.75100000  0.70700000  1.0
  N  N150  1  0.73400000  0.03500000  0.79600000  1.0
  N  N151  1  0.65000000  0.85900000  0.40000000  1.0
  O  O152  1  0.78400000  0.32400000  0.18300000  1.0
  O  O153  1  0.97700000  0.47500000  0.18400000  1.0
  O  O154  1  0.79400000  0.57000000  0.12900000  1.0
  O  O155  1  0.74400000  0.51800000  0.23700000  1.0
  O  O156  1  0.49200000  0.36600000  0.15800000  1.0
  O  O157  1  0.44300000  0.55900000  0.21200000  1.0
  O  O158  1  0.35900000  0.56700000  0.12000000  1.0
  O  O159  1  0.26000000  0.39400000  0.20900000  1.0
  O  O160  1  0.70300000  0.93300000  0.28300000  1.0
  O  O161  1  0.58600000  0.81100000  0.22100000  1.0
  O  O162  1  0.58700000  0.06100000  0.20200000  1.0
  O  O163  1  0.45300000  0.92600000  0.29800000  1.0
  O  O164  1  0.16700000  0.76300000  0.33000000  1.0
  O  O165  1  0.11100000  0.58100000  0.28400000  1.0
  O  O166  1  0.96100000  0.77900000  0.28400000  1.0
  O  O167  1  0.96800000  0.61400000  0.37700000  1.0
  O  O168  1  0.16400000  0.07100000  0.32500000  1.0
  O  O169  1  0.98800000  0.09800000  0.25900000  1.0
  O  O170  1  0.02500000  0.28200000  0.31200000  1.0
  O  O171  1  0.91600000  0.06200000  0.36800000  1.0
  O  O172  1  0.21600000  0.67600000  0.81700000  1.0
  O  O173  1  0.02300000  0.52500000  0.81600000  1.0
  O  O174  1  0.20600000  0.43000000  0.87100000  1.0
  O  O175  1  0.25600000  0.48200000  0.76300000  1.0
  O  O176  1  0.50800000  0.63400000  0.84200000  1.0
  O  O177  1  0.55700000  0.44100000  0.78800000  1.0
  O  O178  1  0.64100000  0.43300000  0.88000000  1.0
  O  O179  1  0.74000000  0.60600000  0.79100000  1.0
  O  O180  1  0.29700000  0.06700000  0.71700000  1.0
  O  O181  1  0.41400000  0.18900000  0.77900000  1.0
  O  O182  1  0.41300000  0.93900000  0.79800000  1.0
  O  O183  1  0.54700000  0.07400000  0.70200000  1.0
  O  O184  1  0.83300000  0.23700000  0.67000000  1.0
  O  O185  1  0.88900000  0.41900000  0.71600000  1.0
  O  O186  1  0.03900000  0.22100000  0.71600000  1.0
  O  O187  1  0.03200000  0.38600000  0.62300000  1.0
  O  O188  1  0.83600000  0.92900000  0.67500000  1.0
  O  O189  1  0.01200000  0.90200000  0.74100000  1.0
  O  O190  1  0.97500000  0.71800000  0.68800000  1.0
  O  O191  1  0.08400000  0.93800000  0.63200000  1.0
