# generated using pymatgen
data_TbH8C12(NO3)3
_symmetry_space_group_name_H-M   'P 1'
_cell_length_a   10.17920000
_cell_length_b   11.42680000
_cell_length_c   17.51930000
_cell_angle_alpha   90.00000000
_cell_angle_beta   90.00000000
_cell_angle_gamma   110.03500000
_symmetry_Int_Tables_number   1
_chemical_formula_structural   TbH8C12(NO3)3
_chemical_formula_sum   'Tb4 H32 C48 N12 O36'
_cell_volume   1914.45070453
_cell_formula_units_Z   4
loop_
 _symmetry_equiv_pos_site_id
 _symmetry_equiv_pos_as_xyz
  1  'x, y, z'
loop_
 _atom_site_type_symbol
 _atom_site_label
 _atom_site_symmetry_multiplicity
 _atom_site_fract_x
 _atom_site_fract_y
 _atom_site_fract_z
 _atom_site_occupancy
  Tb  Tb0  1  0.01038000  0.18171000  0.50725000  1.0
  Tb  Tb1  1  0.98962000  0.31829000  0.00725000  1.0
  Tb  Tb2  1  0.98962000  0.81829000  0.49275000  1.0
  Tb  Tb3  1  0.01038000  0.68171000  0.99275000  1.0
  H  H4  1  0.91040000  0.30380000  0.81610000  1.0
  H  H5  1  0.10100000  0.63520000  0.71640000  1.0
  H  H6  1  0.85610000  0.21520000  0.69750000  1.0
  H  H7  1  0.05450000  0.53940000  0.59900000  1.0
  H  H8  1  0.43420000  0.96080000  0.39220000  1.0
  H  H9  1  0.47930000  0.28760000  0.49110000  1.0
  H  H10  1  0.67570000  0.02680000  0.37450000  1.0
  H  H11  1  0.72000000  0.34460000  0.47780000  1.0
  H  H12  1  0.08960000  0.19620000  0.31610000  1.0
  H  H13  1  0.89900000  0.86480000  0.21640000  1.0
  H  H14  1  0.14390000  0.28480000  0.19750000  1.0
  H  H15  1  0.94550000  0.96060000  0.09900000  1.0
  H  H16  1  0.56580000  0.53920000  0.89220000  1.0
  H  H17  1  0.52070000  0.21240000  0.99110000  1.0
  H  H18  1  0.32430000  0.47320000  0.87450000  1.0
  H  H19  1  0.28000000  0.15540000  0.97780000  1.0
  H  H20  1  0.08960000  0.69620000  0.18390000  1.0
  H  H21  1  0.89900000  0.36480000  0.28360000  1.0
  H  H22  1  0.14390000  0.78480000  0.30250000  1.0
  H  H23  1  0.94550000  0.46060000  0.40100000  1.0
  H  H24  1  0.56580000  0.03920000  0.60780000  1.0
  H  H25  1  0.52070000  0.71240000  0.50890000  1.0
  H  H26  1  0.32430000  0.97320000  0.62550000  1.0
  H  H27  1  0.28000000  0.65540000  0.52220000  1.0
  H  H28  1  0.91040000  0.80380000  0.68390000  1.0
  H  H29  1  0.10100000  0.13520000  0.78360000  1.0
  H  H30  1  0.85610000  0.71520000  0.80250000  1.0
  H  H31  1  0.05450000  0.03940000  0.90100000  1.0
  H  H32  1  0.43420000  0.46080000  0.10780000  1.0
  H  H33  1  0.47930000  0.78760000  0.00890000  1.0
  H  H34  1  0.67570000  0.52680000  0.12550000  1.0
  H  H35  1  0.72000000  0.84460000  0.02220000  1.0
  C  C36  1  0.03890000  0.54180000  0.85670000  1.0
  C  C37  1  0.01100000  0.47960000  0.77930000  1.0
  C  C38  1  0.93800000  0.35270000  0.77260000  1.0
  C  C39  1  0.05300000  0.54990000  0.71320000  1.0
  C  C40  1  0.90680000  0.29980000  0.70180000  1.0
  C  C41  1  0.02330000  0.49290000  0.64320000  1.0
  C  C42  1  0.27510000  0.07210000  0.46190000  1.0
  C  C43  1  0.43010000  0.11600000  0.44540000  1.0
  C  C44  1  0.49030000  0.03880000  0.40960000  1.0
  C  C45  1  0.51740000  0.23240000  0.46910000  1.0
  C  C46  1  0.63530000  0.07780000  0.39950000  1.0
  C  C47  1  0.66160000  0.26750000  0.46030000  1.0
  C  C48  1  0.96110000  0.95820000  0.35670000  1.0
  C  C49  1  0.98900000  0.02040000  0.27930000  1.0
  C  C50  1  0.06200000  0.14730000  0.27260000  1.0
  C  C51  1  0.94700000  0.95010000  0.21320000  1.0
  C  C52  1  0.09320000  0.20020000  0.20180000  1.0
  C  C53  1  0.97670000  0.00710000  0.14320000  1.0
  C  C54  1  0.72490000  0.42790000  0.96190000  1.0
  C  C55  1  0.56990000  0.38400000  0.94540000  1.0
  C  C56  1  0.50970000  0.46120000  0.90960000  1.0
  C  C57  1  0.48260000  0.26760000  0.96910000  1.0
  C  C58  1  0.36470000  0.42220000  0.89950000  1.0
  C  C59  1  0.33840000  0.23250000  0.96030000  1.0
  C  C60  1  0.96110000  0.45820000  0.14330000  1.0
  C  C61  1  0.98900000  0.52040000  0.22070000  1.0
  C  C62  1  0.06200000  0.64730000  0.22740000  1.0
  C  C63  1  0.94700000  0.45010000  0.28680000  1.0
  C  C64  1  0.09320000  0.70020000  0.29820000  1.0
  C  C65  1  0.97670000  0.50710000  0.35680000  1.0
  C  C66  1  0.72490000  0.92790000  0.53810000  1.0
  C  C67  1  0.56990000  0.88400000  0.55460000  1.0
  C  C68  1  0.50970000  0.96120000  0.59040000  1.0
  C  C69  1  0.48260000  0.76760000  0.53090000  1.0
  C  C70  1  0.36470000  0.92220000  0.60050000  1.0
  C  C71  1  0.33840000  0.73250000  0.53970000  1.0
  C  C72  1  0.03890000  0.04180000  0.64330000  1.0
  C  C73  1  0.01100000  0.97960000  0.72070000  1.0
  C  C74  1  0.93800000  0.85270000  0.72740000  1.0
  C  C75  1  0.05300000  0.04990000  0.78680000  1.0
  C  C76  1  0.90680000  0.79980000  0.79820000  1.0
  C  C77  1  0.02330000  0.99290000  0.85680000  1.0
  C  C78  1  0.27510000  0.57210000  0.03810000  1.0
  C  C79  1  0.43010000  0.61600000  0.05460000  1.0
  C  C80  1  0.49030000  0.53880000  0.09040000  1.0
  C  C81  1  0.51740000  0.73240000  0.03090000  1.0
  C  C82  1  0.63530000  0.57780000  0.10050000  1.0
  C  C83  1  0.66160000  0.76750000  0.03970000  1.0
  N  N84  1  0.94900000  0.36960000  0.63760000  1.0
  N  N85  1  0.71560000  0.18930000  0.42620000  1.0
  N  N86  1  0.23190000  0.40830000  0.46750000  1.0
  N  N87  1  0.05100000  0.13040000  0.13760000  1.0
  N  N88  1  0.28440000  0.31070000  0.92620000  1.0
  N  N89  1  0.76810000  0.09170000  0.96750000  1.0
  N  N90  1  0.05100000  0.63040000  0.36240000  1.0
  N  N91  1  0.28440000  0.81070000  0.57380000  1.0
  N  N92  1  0.76810000  0.59170000  0.53250000  1.0
  N  N93  1  0.94900000  0.86960000  0.86240000  1.0
  N  N94  1  0.71560000  0.68930000  0.07380000  1.0
  N  N95  1  0.23190000  0.90830000  0.03250000  1.0
  O  O96  1  0.91570000  0.31860000  0.56970000  1.0
  O  O97  1  0.02550000  0.47410000  0.91520000  1.0
  O  O98  1  0.06200000  0.65560000  0.86100000  1.0
  O  O99  1  0.22730000  0.15330000  0.48610000  1.0
  O  O100  1  0.20840000  0.95760000  0.45200000  1.0
  O  O101  1  0.85450000  0.22500000  0.41900000  1.0
  O  O102  1  0.20580000  0.38020000  0.53760000  1.0
  O  O103  1  0.14560000  0.34270000  0.41820000  1.0
  O  O104  1  0.33340000  0.49500000  0.45190000  1.0
  O  O105  1  0.08430000  0.18140000  0.06970000  1.0
  O  O106  1  0.97450000  0.02590000  0.41520000  1.0
  O  O107  1  0.93800000  0.84440000  0.36100000  1.0
  O  O108  1  0.77270000  0.34670000  0.98610000  1.0
  O  O109  1  0.79160000  0.54240000  0.95200000  1.0
  O  O110  1  0.14550000  0.27500000  0.91900000  1.0
  O  O111  1  0.79420000  0.11980000  0.03760000  1.0
  O  O112  1  0.85440000  0.15730000  0.91820000  1.0
  O  O113  1  0.66666667  0.00500000  0.95190000  1.0
  O  O114  1  0.08430000  0.68140000  0.43030000  1.0
  O  O115  1  0.97450000  0.52590000  0.08480000  1.0
  O  O116  1  0.93800000  0.34440000  0.13900000  1.0
  O  O117  1  0.77270000  0.84670000  0.51390000  1.0
  O  O118  1  0.79160000  0.04240000  0.54800000  1.0
  O  O119  1  0.14550000  0.77500000  0.58100000  1.0
  O  O120  1  0.79420000  0.61980000  0.46240000  1.0
  O  O121  1  0.85440000  0.65730000  0.58180000  1.0
  O  O122  1  0.66666667  0.50500000  0.54810000  1.0
  O  O123  1  0.91570000  0.81860000  0.93030000  1.0
  O  O124  1  0.02550000  0.97410000  0.58480000  1.0
  O  O125  1  0.06200000  0.15560000  0.63900000  1.0
  O  O126  1  0.22730000  0.65330000  0.01390000  1.0
  O  O127  1  0.20840000  0.45760000  0.04800000  1.0
  O  O128  1  0.85450000  0.72500000  0.08100000  1.0
  O  O129  1  0.20580000  0.88020000  0.96240000  1.0
  O  O130  1  0.14560000  0.84270000  0.08180000  1.0
  O  O131  1  0.33340000  0.99500000  0.04810000  1.0
