# generated using pymatgen
data_SmHC5(NO2)2
_symmetry_space_group_name_H-M   'P 1'
_cell_length_a   16.22600000
_cell_length_b   16.56410000
_cell_length_c   16.56410000
_cell_angle_alpha   76.11950000
_cell_angle_beta   60.67300000
_cell_angle_gamma   60.67300000
_symmetry_Int_Tables_number   1
_chemical_formula_structural   SmHC5(NO2)2
_chemical_formula_sum   'Sm16 H16 C80 N32 O64'
_cell_volume   3383.91390639
_cell_formula_units_Z   16
loop_
 _symmetry_equiv_pos_site_id
 _symmetry_equiv_pos_as_xyz
  1  'x, y, z'
loop_
 _atom_site_type_symbol
 _atom_site_label
 _atom_site_symmetry_multiplicity
 _atom_site_fract_x
 _atom_site_fract_y
 _atom_site_fract_z
 _atom_site_occupancy
  Sm  Sm0  1  0.70511000  0.53254000  0.37980000  1.0
  Sm  Sm1  1  0.62595000  0.88674000  0.02394000  1.0
  Sm  Sm2  1  0.11745000  0.96746000  0.12021000  1.0
  Sm  Sm3  1  0.03663000  0.61326000  0.47606000  1.0
  Sm  Sm4  1  0.08492000  0.62020000  0.03253000  1.0
  Sm  Sm5  1  0.64989000  0.97606000  0.38674000  1.0
  Sm  Sm6  1  0.23765000  0.87980000  0.46746000  1.0
  Sm  Sm7  1  0.51269000  0.52394000  0.11326000  1.0
  Sm  Sm8  1  0.29489000  0.46746000  0.62020000  1.0
  Sm  Sm9  1  0.37405000  0.11326000  0.97606000  1.0
  Sm  Sm10  1  0.88255000  0.03254000  0.87979000  1.0
  Sm  Sm11  1  0.96337000  0.38674000  0.52394000  1.0
  Sm  Sm12  1  0.91509000  0.37979000  0.96747000  1.0
  Sm  Sm13  1  0.35011000  0.02394000  0.61326000  1.0
  Sm  Sm14  1  0.76234000  0.12021000  0.53254000  1.0
  Sm  Sm15  1  0.48731000  0.47606000  0.88674000  1.0
  H  H16  1  0.55860000  0.74860000  0.25320000  1.0
  H  H17  1  0.58340000  0.78230000  0.40030000  1.0
  H  H18  1  0.06040000  0.75140000  0.24680000  1.0
  H  H19  1  0.26600000  0.71770000  0.09970000  1.0
  H  H20  1  0.81180000  0.74680000  0.24860000  1.0
  H  H21  1  0.98370000  0.59970000  0.28230000  1.0
  H  H22  1  0.30720000  0.75320000  0.25140000  1.0
  H  H23  1  0.36570000  0.90030000  0.21770000  1.0
  H  H24  1  0.44140000  0.25140000  0.74680000  1.0
  H  H25  1  0.41660000  0.21770000  0.59970000  1.0
  H  H26  1  0.93960000  0.24860000  0.75320000  1.0
  H  H27  1  0.73400000  0.28230000  0.90030000  1.0
  H  H28  1  0.18820000  0.25320000  0.75140000  1.0
  H  H29  1  0.01630000  0.40030000  0.71770000  1.0
  H  H30  1  0.69280000  0.24680000  0.74860000  1.0
  H  H31  1  0.63430000  0.09970000  0.78230000  1.0
  C  C32  1  0.63120000  0.72260000  0.21720000  1.0
  C  C33  1  0.78260000  0.70270000  0.10630000  1.0
  C  C34  1  0.79480000  0.63250000  0.17050000  1.0
  C  C35  1  0.85550000  0.72390000  0.01590000  1.0
  C  C36  1  0.88680000  0.55240000  0.17900000  1.0
  C  C37  1  0.63970000  0.75910000  0.41470000  1.0
  C  C38  1  0.77210000  0.66370000  0.44290000  1.0
  C  C39  1  0.75190000  0.75350000  0.45170000  1.0
  C  C40  1  0.84890000  0.57050000  0.45310000  1.0
  C  C41  1  0.80540000  0.79400000  0.46940000  1.0
  C  C42  1  0.07100000  0.77740000  0.28280000  1.0
  C  C43  1  0.09160000  0.79730000  0.39370000  1.0
  C  C44  1  0.09780000  0.86750000  0.32950000  1.0
  C  C45  1  0.09530000  0.77610000  0.48410000  1.0
  C  C46  1  0.11820000  0.94760000  0.32100000  1.0
  C  C47  1  0.31350000  0.74090000  0.08530000  1.0
  C  C48  1  0.37870000  0.83630000  0.05710000  1.0
  C  C49  1  0.45710000  0.74650000  0.04830000  1.0
  C  C50  1  0.37250000  0.92950000  0.04690000  1.0
  C  C51  1  0.56880000  0.70600000  0.03060000  1.0
  C  C52  1  0.84840000  0.78280000  0.22260000  1.0
  C  C53  1  0.88890000  0.89370000  0.20270000  1.0
  C  C54  1  0.96530000  0.82950000  0.13250000  1.0
  C  C55  1  0.87140000  0.98410000  0.22390000  1.0
  C  C56  1  0.06580000  0.82100000  0.05240000  1.0
  C  C57  1  0.05440000  0.58530000  0.25910000  1.0
  C  C58  1  0.21500000  0.55710000  0.16370000  1.0
  C  C59  1  0.20360000  0.54830000  0.25350000  1.0
  C  C60  1  0.30200000  0.54690000  0.07050000  1.0
  C  C61  1  0.27480000  0.53060000  0.29400000  1.0
  C  C62  1  0.35380000  0.71720000  0.27740000  1.0
  C  C63  1  0.48530000  0.60630000  0.29730000  1.0
  C  C64  1  0.42730000  0.67050000  0.36750000  1.0
  C  C65  1  0.57940000  0.51590000  0.27610000  1.0
  C  C66  1  0.43920000  0.67900000  0.44760000  1.0
  C  C67  1  0.39880000  0.91470000  0.24090000  1.0
  C  C68  1  0.43580000  0.94290000  0.33630000  1.0
  C  C69  1  0.50540000  0.95170000  0.24650000  1.0
  C  C70  1  0.41940000  0.95310000  0.42950000  1.0
  C  C71  1  0.59940000  0.96940000  0.20600000  1.0
  C  C72  1  0.36880000  0.27740000  0.78280000  1.0
  C  C73  1  0.21740000  0.29730000  0.89370000  1.0
  C  C74  1  0.20520000  0.36750000  0.82950000  1.0
  C  C75  1  0.14450000  0.27610000  0.98410000  1.0
  C  C76  1  0.11320000  0.44760000  0.82100000  1.0
  C  C77  1  0.36030000  0.24090000  0.58530000  1.0
  C  C78  1  0.22790000  0.33630000  0.55710000  1.0
  C  C79  1  0.24810000  0.24650000  0.54830000  1.0
  C  C80  1  0.15110000  0.42950000  0.54690000  1.0
  C  C81  1  0.19460000  0.20600000  0.53060000  1.0
  C  C82  1  0.92900000  0.22260000  0.71720000  1.0
  C  C83  1  0.90840000  0.20270000  0.60630000  1.0
  C  C84  1  0.90220000  0.13250000  0.67050000  1.0
  C  C85  1  0.90470000  0.22390000  0.51590000  1.0
  C  C86  1  0.88180000  0.05240000  0.67900000  1.0
  C  C87  1  0.68650000  0.25910000  0.91470000  1.0
  C  C88  1  0.62130000  0.16370000  0.94290000  1.0
  C  C89  1  0.54290000  0.25350000  0.95170000  1.0
  C  C90  1  0.62750000  0.07050000  0.95310000  1.0
  C  C91  1  0.43120000  0.29400000  0.96940000  1.0
  C  C92  1  0.15160000  0.21720000  0.77740000  1.0
  C  C93  1  0.11110000  0.10630000  0.79730000  1.0
  C  C94  1  0.03470000  0.17050000  0.86750000  1.0
  C  C95  1  0.12860000  0.01590000  0.77610000  1.0
  C  C96  1  0.93420000  0.17900000  0.94760000  1.0
  C  C97  1  0.94560000  0.41470000  0.74090000  1.0
  C  C98  1  0.78500000  0.44290000  0.83630000  1.0
  C  C99  1  0.79640000  0.45170000  0.74650000  1.0
  C  C100  1  0.69800000  0.45310000  0.92950000  1.0
  C  C101  1  0.72520000  0.46940000  0.70600000  1.0
  C  C102  1  0.64620000  0.28280000  0.72260000  1.0
  C  C103  1  0.51470000  0.39370000  0.70270000  1.0
  C  C104  1  0.57270000  0.32950000  0.63250000  1.0
  C  C105  1  0.42060000  0.48410000  0.72390000  1.0
  C  C106  1  0.56080000  0.32100000  0.55240000  1.0
  C  C107  1  0.60120000  0.08530000  0.75910000  1.0
  C  C108  1  0.56420000  0.05710000  0.66370000  1.0
  C  C109  1  0.49460000  0.04830000  0.75350000  1.0
  C  C110  1  0.58060000  0.04690000  0.57050000  1.0
  C  C111  1  0.40060000  0.03060000  0.79400000  1.0
  N  N112  1  0.69710000  0.64530000  0.24170000  1.0
  N  N113  1  0.67720000  0.76030000  0.13650000  1.0
  N  N114  1  0.66810000  0.81330000  0.43290000  1.0
  N  N115  1  0.69950000  0.66810000  0.41890000  1.0
  N  N116  1  0.08410000  0.85470000  0.25830000  1.0
  N  N117  1  0.07400000  0.73970000  0.36350000  1.0
  N  N118  1  0.41430000  0.68670000  0.06710000  1.0
  N  N119  1  0.28650000  0.83190000  0.08110000  1.0
  N  N120  1  0.93880000  0.75830000  0.14530000  1.0
  N  N121  1  0.81370000  0.86350000  0.26030000  1.0
  N  N122  1  0.10100000  0.56710000  0.31330000  1.0
  N  N123  1  0.11840000  0.58110000  0.16810000  1.0
  N  N124  1  0.34240000  0.74170000  0.35470000  1.0
  N  N125  1  0.43750000  0.63650000  0.23970000  1.0
  N  N126  1  0.48140000  0.93290000  0.18670000  1.0
  N  N127  1  0.36760000  0.91890000  0.33190000  1.0
  N  N128  1  0.30290000  0.35470000  0.75830000  1.0
  N  N129  1  0.32280000  0.23970000  0.86350000  1.0
  N  N130  1  0.33190000  0.18670000  0.56710000  1.0
  N  N131  1  0.30050000  0.33190000  0.58110000  1.0
  N  N132  1  0.91590000  0.14530000  0.74170000  1.0
  N  N133  1  0.92600000  0.26030000  0.63650000  1.0
  N  N134  1  0.58570000  0.31330000  0.93290000  1.0
  N  N135  1  0.71350000  0.16810000  0.91890000  1.0
  N  N136  1  0.06120000  0.24170000  0.85470000  1.0
  N  N137  1  0.18630000  0.13650000  0.73970000  1.0
  N  N138  1  0.89900000  0.43290000  0.68670000  1.0
  N  N139  1  0.88160000  0.41890000  0.83190000  1.0
  N  N140  1  0.65760000  0.25830000  0.64530000  1.0
  N  N141  1  0.56250000  0.36350000  0.76030000  1.0
  N  N142  1  0.51860000  0.06710000  0.81330000  1.0
  N  N143  1  0.63240000  0.08110000  0.66810000  1.0
  O  O144  1  0.86740000  0.49280000  0.24120000  1.0
  O  O145  1  0.97700000  0.54570000  0.12890000  1.0
  O  O146  1  0.95310000  0.67840000  0.98340000  1.0
  O  O147  1  0.81190000  0.79239000  0.97201000  1.0
  O  O148  1  0.84746000  0.50223000  0.43245000  1.0
  O  O149  1  0.91268000  0.55585000  0.48499000  1.0
  O  O150  1  0.87610000  0.74390000  0.49450000  1.0
  O  O151  1  0.77290000  0.88080000  0.45760000  1.0
  O  O152  1  0.10140000  0.00720000  0.25880000  1.0
  O  O153  1  0.15160000  0.95430000  0.37110000  1.0
  O  O154  1  0.11490000  0.82160000  0.51660000  1.0
  O  O155  1  0.07630000  0.70761000  0.52799000  1.0
  O  O156  1  0.28214000  0.99777000  0.06755000  1.0
  O  O157  1  0.45352000  0.94415000  0.01501000  1.0
  O  O158  1  0.61450000  0.75610000  0.00550000  1.0
  O  O159  1  0.61130000  0.61920000  0.04240000  1.0
  O  O160  1  0.10860000  0.75880000  0.99280000  1.0
  O  O161  1  0.10590000  0.87110000  0.04570000  1.0
  O  O162  1  0.93650000  0.01660000  0.17840000  1.0
  O  O163  1  0.78391000  0.02799000  0.29239000  1.0
  O  O164  1  0.27991000  0.56755000  0.00223000  1.0
  O  O165  1  0.39767000  0.51501000  0.05585000  1.0
  O  O166  1  0.37060000  0.50550000  0.24390000  1.0
  O  O167  1  0.23050000  0.54240000  0.38080000  1.0
  O  O168  1  0.36020000  0.74120000  0.50720000  1.0
  O  O169  1  0.52270000  0.62890000  0.45430000  1.0
  O  O170  1  0.63150000  0.48340000  0.32160000  1.0
  O  O171  1  0.60429000  0.47201000  0.20761000  1.0
  O  O172  1  0.34969000  0.93245000  0.49777000  1.0
  O  O173  1  0.46853000  0.98499000  0.44415000  1.0
  O  O174  1  0.62000000  0.99450000  0.25610000  1.0
  O  O175  1  0.65370000  0.95760000  0.11920000  1.0
  O  O176  1  0.13260000  0.50720000  0.75880000  1.0
  O  O177  1  0.02300000  0.45430000  0.87110000  1.0
  O  O178  1  0.04690000  0.32160000  0.01660000  1.0
  O  O179  1  0.18810000  0.20761000  0.02799000  1.0
  O  O180  1  0.15254000  0.49777000  0.56755000  1.0
  O  O181  1  0.08732000  0.44415000  0.51501000  1.0
  O  O182  1  0.12390000  0.25610000  0.50550000  1.0
  O  O183  1  0.22710000  0.11920000  0.54240000  1.0
  O  O184  1  0.89860000  0.99280000  0.74120000  1.0
  O  O185  1  0.84840000  0.04570000  0.62890000  1.0
  O  O186  1  0.88510000  0.17840000  0.48340000  1.0
  O  O187  1  0.92370000  0.29239000  0.47201000  1.0
  O  O188  1  0.71786000  0.00223000  0.93245000  1.0
  O  O189  1  0.54648000  0.05585000  0.98499000  1.0
  O  O190  1  0.38550000  0.24390000  0.99450000  1.0
  O  O191  1  0.38870000  0.38080000  0.95760000  1.0
  O  O192  1  0.89140000  0.24120000  0.00720000  1.0
  O  O193  1  0.89410000  0.12890000  0.95430000  1.0
  O  O194  1  0.06350000  0.98340000  0.82160000  1.0
  O  O195  1  0.21609000  0.97201000  0.70761000  1.0
  O  O196  1  0.72009000  0.43245000  0.99777000  1.0
  O  O197  1  0.60233000  0.48499000  0.94415000  1.0
  O  O198  1  0.62940000  0.49450000  0.75610000  1.0
  O  O199  1  0.76950000  0.45760000  0.61920000  1.0
  O  O200  1  0.63980000  0.25880000  0.49280000  1.0
  O  O201  1  0.47730000  0.37110000  0.54570000  1.0
  O  O202  1  0.36850000  0.51660000  0.67840000  1.0
  O  O203  1  0.39571000  0.52799000  0.79239000  1.0
  O  O204  1  0.65031000  0.06755000  0.50223000  1.0
  O  O205  1  0.53147000  0.01501000  0.55585000  1.0
  O  O206  1  0.38000000  0.00550000  0.74390000  1.0
  O  O207  1  0.34630000  0.04240000  0.88080000  1.0
