# generated using pymatgen
data_DyHC5(NO2)2
_symmetry_space_group_name_H-M   'P 1'
_cell_length_a   16.00100000
_cell_length_b   16.37960000
_cell_length_c   16.37960000
_cell_angle_alpha   76.19740000
_cell_angle_beta   60.76170000
_cell_angle_gamma   60.76170000
_symmetry_Int_Tables_number   1
_chemical_formula_structural   DyHC5(NO2)2
_chemical_formula_sum   'Dy16 H16 C80 N32 O64'
_cell_volume   3268.73650063
_cell_formula_units_Z   16
loop_
 _symmetry_equiv_pos_site_id
 _symmetry_equiv_pos_as_xyz
  1  'x, y, z'
loop_
 _atom_site_type_symbol
 _atom_site_label
 _atom_site_symmetry_multiplicity
 _atom_site_fract_x
 _atom_site_fract_y
 _atom_site_fract_z
 _atom_site_occupancy
  Dy  Dy0  1  0.41765000  0.37961000  0.96619000  1.0
  Dy  Dy1  1  0.87537000  0.11309000  0.97501000  1.0
  Dy  Dy2  1  0.26345000  0.12039000  0.53381000  1.0
  Dy  Dy3  1  0.46347000  0.38691000  0.52499000  1.0
  Dy  Dy4  1  0.38384000  0.03381000  0.87961000  1.0
  Dy  Dy5  1  0.85038000  0.02499000  0.61309000  1.0
  Dy  Dy6  1  0.79726000  0.46619000  0.62039000  1.0
  Dy  Dy7  1  0.98846000  0.47501000  0.88691000  1.0
  Dy  Dy8  1  0.58235000  0.62039000  0.03381000  1.0
  Dy  Dy9  1  0.12463000  0.88691000  0.02499000  1.0
  Dy  Dy10  1  0.73655000  0.87961000  0.46619000  1.0
  Dy  Dy11  1  0.53653000  0.61309000  0.47501000  1.0
  Dy  Dy12  1  0.61616000  0.96619000  0.12039000  1.0
  Dy  Dy13  1  0.14962000  0.97501000  0.38691000  1.0
  Dy  Dy14  1  0.20274000  0.53381000  0.37961000  1.0
  Dy  Dy15  1  0.01154000  0.52499000  0.11309000  1.0
  H  H16  1  0.94620000  0.24860000  0.74520000  1.0
  H  H17  1  0.51940000  0.40040000  0.71660000  1.0
  H  H18  1  0.44000000  0.25140000  0.75480000  1.0
  H  H19  1  0.13640000  0.09960000  0.78340000  1.0
  H  H20  1  0.69140000  0.25480000  0.74860000  1.0
  H  H21  1  0.23600000  0.28340000  0.90040000  1.0
  H  H22  1  0.19480000  0.24520000  0.75140000  1.0
  H  H23  1  0.91980000  0.21660000  0.59960000  1.0
  H  H24  1  0.05380000  0.75140000  0.25480000  1.0
  H  H25  1  0.48060000  0.59960000  0.28340000  1.0
  H  H26  1  0.56000000  0.74860000  0.24520000  1.0
  H  H27  1  0.86360000  0.90040000  0.21660000  1.0
  H  H28  1  0.30860000  0.74520000  0.25140000  1.0
  H  H29  1  0.76400000  0.71660000  0.09960000  1.0
  H  H30  1  0.80520000  0.75480000  0.24860000  1.0
  H  H31  1  0.08020000  0.78340000  0.40040000  1.0
  C  C32  1  0.87280000  0.27530000  0.78190000  1.0
  C  C33  1  0.71970000  0.29580000  0.89380000  1.0
  C  C34  1  0.70750000  0.36710000  0.82810000  1.0
  C  C35  1  0.64590000  0.27480000  0.98500000  1.0
  C  C36  1  0.61560000  0.44740000  0.82000000  1.0
  C  C37  1  0.44770000  0.41510000  0.74010000  1.0
  C  C38  1  0.28610000  0.44440000  0.83700000  1.0
  C  C39  1  0.29800000  0.45260000  0.74540000  1.0
  C  C40  1  0.19730000  0.45470000  0.93110000  1.0
  C  C41  1  0.22530000  0.46870000  0.70630000  1.0
  C  C42  1  0.43000000  0.22470000  0.71810000  1.0
  C  C43  1  0.40930000  0.20420000  0.60620000  1.0
  C  C44  1  0.40270000  0.13290000  0.67190000  1.0
  C  C45  1  0.40570000  0.22520000  0.51500000  1.0
  C  C46  1  0.38300000  0.05260000  0.68000000  1.0
  C  C47  1  0.10290000  0.08490000  0.75990000  1.0
  C  C48  1  0.06750000  0.05560000  0.66300000  1.0
  C  C49  1  0.99600000  0.04740000  0.75460000  1.0
  C  C50  1  0.08310000  0.04530000  0.56890000  1.0
  C  C51  1  0.90030000  0.03130000  0.79370000  1.0
  C  C52  1  0.65470000  0.21810000  0.77530000  1.0
  C  C53  1  0.61350000  0.10620000  0.79580000  1.0
  C  C54  1  0.53560000  0.17190000  0.86710000  1.0
  C  C55  1  0.63090000  0.01500000  0.77480000  1.0
  C  C56  1  0.43560000  0.18000000  0.94740000  1.0
  C  C57  1  0.18780000  0.25990000  0.91510000  1.0
  C  C58  1  0.12310000  0.16300000  0.94440000  1.0
  C  C59  1  0.04340000  0.25460000  0.95260000  1.0
  C  C60  1  0.12840000  0.06890000  0.95470000  1.0
  C  C61  1  0.93160000  0.29370000  0.96870000  1.0
  C  C62  1  0.14810000  0.28190000  0.72470000  1.0
  C  C63  1  0.01550000  0.39380000  0.70420000  1.0
  C  C64  1  0.07460000  0.32810000  0.63290000  1.0
  C  C65  1  0.92070000  0.48500000  0.72520000  1.0
  C  C66  1  0.06300000  0.32000000  0.55260000  1.0
  C  C67  1  0.86280000  0.24010000  0.58490000  1.0
  C  C68  1  0.73050000  0.33700000  0.55560000  1.0
  C  C69  1  0.75060000  0.24540000  0.54740000  1.0
  C  C70  1  0.65200000  0.43110000  0.54530000  1.0
  C  C71  1  0.69400000  0.20630000  0.53130000  1.0
  C  C72  1  0.12720000  0.72470000  0.21810000  1.0
  C  C73  1  0.28030000  0.70420000  0.10620000  1.0
  C  C74  1  0.29250000  0.63290000  0.17190000  1.0
  C  C75  1  0.35410000  0.72520000  0.01500000  1.0
  C  C76  1  0.38440000  0.55260000  0.18000000  1.0
  C  C77  1  0.55230000  0.58490000  0.25990000  1.0
  C  C78  1  0.71390000  0.55560000  0.16300000  1.0
  C  C79  1  0.70200000  0.54740000  0.25460000  1.0
  C  C80  1  0.80270000  0.54530000  0.06890000  1.0
  C  C81  1  0.77470000  0.53130000  0.29370000  1.0
  C  C82  1  0.57000000  0.77530000  0.28190000  1.0
  C  C83  1  0.59070000  0.79580000  0.39380000  1.0
  C  C84  1  0.59730000  0.86710000  0.32810000  1.0
  C  C85  1  0.59430000  0.77480000  0.48500000  1.0
  C  C86  1  0.61700000  0.94740000  0.32000000  1.0
  C  C87  1  0.89710000  0.91510000  0.24010000  1.0
  C  C88  1  0.93250000  0.94440000  0.33700000  1.0
  C  C89  1  0.00400000  0.95260000  0.24540000  1.0
  C  C90  1  0.91690000  0.95470000  0.43110000  1.0
  C  C91  1  0.09970000  0.96870000  0.20630000  1.0
  C  C92  1  0.34530000  0.78190000  0.22470000  1.0
  C  C93  1  0.38650000  0.89380000  0.20420000  1.0
  C  C94  1  0.46440000  0.82810000  0.13290000  1.0
  C  C95  1  0.36910000  0.98500000  0.22520000  1.0
  C  C96  1  0.56440000  0.82000000  0.05260000  1.0
  C  C97  1  0.81220000  0.74010000  0.08490000  1.0
  C  C98  1  0.87690000  0.83700000  0.05560000  1.0
  C  C99  1  0.95660000  0.74540000  0.04740000  1.0
  C  C100  1  0.87160000  0.93110000  0.04530000  1.0
  C  C101  1  0.06840000  0.70630000  0.03130000  1.0
  C  C102  1  0.85190000  0.71810000  0.27530000  1.0
  C  C103  1  0.98450000  0.60620000  0.29580000  1.0
  C  C104  1  0.92540000  0.67190000  0.36710000  1.0
  C  C105  1  0.07930000  0.51500000  0.27480000  1.0
  C  C106  1  0.93700000  0.68000000  0.44740000  1.0
  C  C107  1  0.13720000  0.75990000  0.41510000  1.0
  C  C108  1  0.26950000  0.66300000  0.44440000  1.0
  C  C109  1  0.24940000  0.75460000  0.45260000  1.0
  C  C110  1  0.34800000  0.56890000  0.45470000  1.0
  C  C111  1  0.30600000  0.79370000  0.46870000  1.0
  N  N112  1  0.80640000  0.35320000  0.75720000  1.0
  N  N113  1  0.82580000  0.23780000  0.86400000  1.0
  N  N114  1  0.40190000  0.43300000  0.68560000  1.0
  N  N115  1  0.38380000  0.41960000  0.83180000  1.0
  N  N116  1  0.41680000  0.14680000  0.74280000  1.0
  N  N117  1  0.42760000  0.26220000  0.63600000  1.0
  N  N118  1  0.02050000  0.06700000  0.81440000  1.0
  N  N119  1  0.13520000  0.08040000  0.66820000  1.0
  N  N120  1  0.56360000  0.24280000  0.85320000  1.0
  N  N121  1  0.68980000  0.13600000  0.73780000  1.0
  N  N122  1  0.08750000  0.31440000  0.93300000  1.0
  N  N123  1  0.21560000  0.16820000  0.91960000  1.0
  N  N124  1  0.15960000  0.25720000  0.64680000  1.0
  N  N125  1  0.06360000  0.36400000  0.76220000  1.0
  N  N126  1  0.83490000  0.18560000  0.56700000  1.0
  N  N127  1  0.80340000  0.33180000  0.58040000  1.0
  N  N128  1  0.19360000  0.64680000  0.24280000  1.0
  N  N129  1  0.17420000  0.76220000  0.13600000  1.0
  N  N130  1  0.59810000  0.56700000  0.31440000  1.0
  N  N131  1  0.61620000  0.58040000  0.16820000  1.0
  N  N132  1  0.58320000  0.85320000  0.25720000  1.0
  N  N133  1  0.57240000  0.73780000  0.36400000  1.0
  N  N134  1  0.97950000  0.93300000  0.18560000  1.0
  N  N135  1  0.86480000  0.91960000  0.33180000  1.0
  N  N136  1  0.43640000  0.75720000  0.14680000  1.0
  N  N137  1  0.31020000  0.86400000  0.26220000  1.0
  N  N138  1  0.91250000  0.68560000  0.06700000  1.0
  N  N139  1  0.78440000  0.83180000  0.08040000  1.0
  N  N140  1  0.84040000  0.74280000  0.35320000  1.0
  N  N141  1  0.93640000  0.63600000  0.23780000  1.0
  N  N142  1  0.16510000  0.81440000  0.43300000  1.0
  N  N143  1  0.19660000  0.66820000  0.41960000  1.0
  O  O144  1  0.54680000  0.32020000  0.01740000  1.0
  O  O145  1  0.69030000  0.20590000  0.02870000  1.0
  O  O146  1  0.63420000  0.50760000  0.75700000  1.0
  O  O147  1  0.52330000  0.45570000  0.87190000  1.0
  O  O148  1  0.22160000  0.43210000  0.99870000  1.0
  O  O149  1  0.10120000  0.48690000  0.94570000  1.0
  O  O150  1  0.27060000  0.45630000  0.61830000  1.0
  O  O151  1  0.12830000  0.49400000  0.75660000  1.0
  O  O152  1  0.38440000  0.17980000  0.48260000  1.0
  O  O153  1  0.42490000  0.29410000  0.47130000  1.0
  O  O154  1  0.39880000  0.99240000  0.74300000  1.0
  O  O155  1  0.35090000  0.04430000  0.62810000  1.0
  O  O156  1  0.15240000  0.06790000  0.50130000  1.0
  O  O157  1  0.03380000  0.01310000  0.55430000  1.0
  O  O158  1  0.84520000  0.04370000  0.88170000  1.0
  O  O159  1  0.87890000  0.00600000  0.74340000  1.0
  O  O160  1  0.56420000  0.98260000  0.82020000  1.0
  O  O161  1  0.71900000  0.97130000  0.70590000  1.0
  O  O162  1  0.39120000  0.24300000  0.00760000  1.0
  O  O163  1  0.39520000  0.12810000  0.95570000  1.0
  O  O164  1  0.22030000  0.00130000  0.93210000  1.0
  O  O165  1  0.04690000  0.05430000  0.98690000  1.0
  O  O166  1  0.88890000  0.38170000  0.95630000  1.0
  O  O167  1  0.88490000  0.24340000  0.99400000  1.0
  O  O168  1  0.86700000  0.51740000  0.67980000  1.0
  O  O169  1  0.89620000  0.52870000  0.79410000  1.0
  O  O170  1  0.14180000  0.25700000  0.49240000  1.0
  O  O171  1  0.97900000  0.37190000  0.54430000  1.0
  O  O172  1  0.65370000  0.49870000  0.56790000  1.0
  O  O173  1  0.58810000  0.44570000  0.51310000  1.0
  O  O174  1  0.72690000  0.11830000  0.54370000  1.0
  O  O175  1  0.62230000  0.25660000  0.50600000  1.0
  O  O176  1  0.45320000  0.67980000  0.98260000  1.0
  O  O177  1  0.30970000  0.79410000  0.97130000  1.0
  O  O178  1  0.36580000  0.49240000  0.24300000  1.0
  O  O179  1  0.47670000  0.54430000  0.12810000  1.0
  O  O180  1  0.77840000  0.56790000  0.00130000  1.0
  O  O181  1  0.89880000  0.51310000  0.05430000  1.0
  O  O182  1  0.72940000  0.54370000  0.38170000  1.0
  O  O183  1  0.87170000  0.50600000  0.24340000  1.0
  O  O184  1  0.61560000  0.82020000  0.51740000  1.0
  O  O185  1  0.57510000  0.70590000  0.52870000  1.0
  O  O186  1  0.60120000  0.00760000  0.25700000  1.0
  O  O187  1  0.64910000  0.95570000  0.37190000  1.0
  O  O188  1  0.84760000  0.93210000  0.49870000  1.0
  O  O189  1  0.96620000  0.98690000  0.44570000  1.0
  O  O190  1  0.15480000  0.95630000  0.11830000  1.0
  O  O191  1  0.12110000  0.99400000  0.25660000  1.0
  O  O192  1  0.43580000  0.01740000  0.17980000  1.0
  O  O193  1  0.28100000  0.02870000  0.29410000  1.0
  O  O194  1  0.60880000  0.75700000  0.99240000  1.0
  O  O195  1  0.60480000  0.87190000  0.04430000  1.0
  O  O196  1  0.77970000  0.99870000  0.06790000  1.0
  O  O197  1  0.95310000  0.94570000  0.01310000  1.0
  O  O198  1  0.11110000  0.61830000  0.04370000  1.0
  O  O199  1  0.11510000  0.75660000  0.00600000  1.0
  O  O200  1  0.13300000  0.48260000  0.32020000  1.0
  O  O201  1  0.10380000  0.47130000  0.20590000  1.0
  O  O202  1  0.85820000  0.74300000  0.50760000  1.0
  O  O203  1  0.02100000  0.62810000  0.45570000  1.0
  O  O204  1  0.34630000  0.50130000  0.43210000  1.0
  O  O205  1  0.41190000  0.55430000  0.48690000  1.0
  O  O206  1  0.27310000  0.88170000  0.45630000  1.0
  O  O207  1  0.37770000  0.74340000  0.49400000  1.0
