# generated using pymatgen
data_TbH4(CO2)4
_symmetry_space_group_name_H-M   'P 1'
_cell_length_a   6.69860000
_cell_length_b   18.51790000
_cell_length_c   8.49340000
_cell_angle_alpha   90.00000000
_cell_angle_beta   90.00000000
_cell_angle_gamma   90.00000000
_symmetry_Int_Tables_number   1
_chemical_formula_structural   TbH4(CO2)4
_chemical_formula_sum   'Tb4 H16 C16 O32'
_cell_volume   1053.55535156
_cell_formula_units_Z   4
loop_
 _symmetry_equiv_pos_site_id
 _symmetry_equiv_pos_as_xyz
  1  'x, y, z'
loop_
 _atom_site_type_symbol
 _atom_site_label
 _atom_site_symmetry_multiplicity
 _atom_site_fract_x
 _atom_site_fract_y
 _atom_site_fract_z
 _atom_site_occupancy
  Tb  Tb0  1  0.50000000  0.85734000  0.75000000  1.0
  Tb  Tb1  1  0.00000000  0.35734000  0.75000000  1.0
  Tb  Tb2  1  0.50000000  0.14266000  0.25000000  1.0
  Tb  Tb3  1  0.00000000  0.64266000  0.25000000  1.0
  H  H4  1  0.71410000  0.71870000  0.54150000  1.0
  H  H5  1  0.21410000  0.21870000  0.54150000  1.0
  H  H6  1  0.28590000  0.28130000  0.04150000  1.0
  H  H7  1  0.78590000  0.78130000  0.04150000  1.0
  H  H8  1  0.28590000  0.71870000  0.95850000  1.0
  H  H9  1  0.78590000  0.21870000  0.95850000  1.0
  H  H10  1  0.71410000  0.28130000  0.45850000  1.0
  H  H11  1  0.21410000  0.78130000  0.45850000  1.0
  H  H12  1  0.28730000  0.00000000  0.50000000  1.0
  H  H13  1  0.78730000  0.50000000  0.50000000  1.0
  H  H14  1  0.71270000  0.00000000  0.00000000  1.0
  H  H15  1  0.21270000  0.50000000  0.00000000  1.0
  H  H16  1  0.00000000  0.82480000  0.75000000  1.0
  H  H17  1  0.50000000  0.32480000  0.75000000  1.0
  H  H18  1  0.00000000  0.17520000  0.25000000  1.0
  H  H19  1  0.50000000  0.67520000  0.25000000  1.0
  C  C20  1  0.73520000  0.75700000  0.47270000  1.0
  C  C21  1  0.23520000  0.25700000  0.47270000  1.0
  C  C22  1  0.26480000  0.24300000  0.97270000  1.0
  C  C23  1  0.76480000  0.74300000  0.97270000  1.0
  C  C24  1  0.26480000  0.75700000  0.02730000  1.0
  C  C25  1  0.76480000  0.25700000  0.02730000  1.0
  C  C26  1  0.73520000  0.24300000  0.52730000  1.0
  C  C27  1  0.23520000  0.74300000  0.52730000  1.0
  C  C28  1  0.42610000  0.00000000  0.50000000  1.0
  C  C29  1  0.92610000  0.50000000  0.50000000  1.0
  C  C30  1  0.57390000  0.00000000  0.00000000  1.0
  C  C31  1  0.07390000  0.50000000  0.00000000  1.0
  C  C32  1  0.00000000  0.87500000  0.75000000  1.0
  C  C33  1  0.50000000  0.37500000  0.75000000  1.0
  C  C34  1  0.00000000  0.12500000  0.25000000  1.0
  C  C35  1  0.50000000  0.62500000  0.25000000  1.0
  O  O36  1  0.81920000  0.74253000  0.34700000  1.0
  O  O37  1  0.67610000  0.81706000  0.51660000  1.0
  O  O38  1  0.51300000  0.95032000  0.56900000  1.0
  O  O39  1  0.83660000  0.90582000  0.77060000  1.0
  O  O40  1  0.31920000  0.24253000  0.34700000  1.0
  O  O41  1  0.17610000  0.31706000  0.51660000  1.0
  O  O42  1  0.01300000  0.45032000  0.56900000  1.0
  O  O43  1  0.33660000  0.40582000  0.77060000  1.0
  O  O44  1  0.18080000  0.25747000  0.84700000  1.0
  O  O45  1  0.32390000  0.18294000  0.01660000  1.0
  O  O46  1  0.48700000  0.04968000  0.06900000  1.0
  O  O47  1  0.16340000  0.09418000  0.27060000  1.0
  O  O48  1  0.68080000  0.75747000  0.84700000  1.0
  O  O49  1  0.82390000  0.68294000  0.01660000  1.0
  O  O50  1  0.98700000  0.54968000  0.06900000  1.0
  O  O51  1  0.66340000  0.59418000  0.27060000  1.0
  O  O52  1  0.18080000  0.74253000  0.15300000  1.0
  O  O53  1  0.32390000  0.81706000  0.98340000  1.0
  O  O54  1  0.48700000  0.95032000  0.93100000  1.0
  O  O55  1  0.16340000  0.90582000  0.72940000  1.0
  O  O56  1  0.68080000  0.24253000  0.15300000  1.0
  O  O57  1  0.82390000  0.31706000  0.98340000  1.0
  O  O58  1  0.98700000  0.45032000  0.93100000  1.0
  O  O59  1  0.66340000  0.40582000  0.72940000  1.0
  O  O60  1  0.81920000  0.25747000  0.65300000  1.0
  O  O61  1  0.67610000  0.18294000  0.48340000  1.0
  O  O62  1  0.51300000  0.04968000  0.43100000  1.0
  O  O63  1  0.83660000  0.09418000  0.22940000  1.0
  O  O64  1  0.31920000  0.75747000  0.65300000  1.0
  O  O65  1  0.17610000  0.68294000  0.48340000  1.0
  O  O66  1  0.01300000  0.54968000  0.43100000  1.0
  O  O67  1  0.33660000  0.59418000  0.22940000  1.0
