# generated using pymatgen
data_YbH4(CO2)4
_symmetry_space_group_name_H-M   'P 1'
_cell_length_a   6.62910000
_cell_length_b   18.25490000
_cell_length_c   8.39830000
_cell_angle_alpha   90.00000000
_cell_angle_beta   90.00000000
_cell_angle_gamma   90.00000000
_symmetry_Int_Tables_number   1
_chemical_formula_structural   YbH4(CO2)4
_chemical_formula_sum   'Yb4 H16 C16 O32'
_cell_volume   1016.30816071
_cell_formula_units_Z   4
loop_
 _symmetry_equiv_pos_site_id
 _symmetry_equiv_pos_as_xyz
  1  'x, y, z'
loop_
 _atom_site_type_symbol
 _atom_site_label
 _atom_site_symmetry_multiplicity
 _atom_site_fract_x
 _atom_site_fract_y
 _atom_site_fract_z
 _atom_site_occupancy
  Yb  Yb0  1  0.50000000  0.14278000  0.75000000  1.0
  Yb  Yb1  1  0.00000000  0.64278000  0.75000000  1.0
  Yb  Yb2  1  0.50000000  0.85722000  0.25000000  1.0
  Yb  Yb3  1  0.00000000  0.35722000  0.25000000  1.0
  H  H4  1  0.27940000  0.28270000  0.95270000  1.0
  H  H5  1  0.77940000  0.78270000  0.95270000  1.0
  H  H6  1  0.72060000  0.71730000  0.45270000  1.0
  H  H7  1  0.22060000  0.21730000  0.45270000  1.0
  H  H8  1  0.72060000  0.28270000  0.54730000  1.0
  H  H9  1  0.22060000  0.78270000  0.54730000  1.0
  H  H10  1  0.27940000  0.71730000  0.04730000  1.0
  H  H11  1  0.77940000  0.21730000  0.04730000  1.0
  H  H12  1  0.00000000  0.17730000  0.75000000  1.0
  H  H13  1  0.50000000  0.67730000  0.75000000  1.0
  H  H14  1  0.00000000  0.82270000  0.25000000  1.0
  H  H15  1  0.50000000  0.32270000  0.25000000  1.0
  H  H16  1  0.28390000  0.00000000  0.50000000  1.0
  H  H17  1  0.78390000  0.50000000  0.50000000  1.0
  H  H18  1  0.71610000  0.00000000  0.00000000  1.0
  H  H19  1  0.21610000  0.50000000  0.00000000  1.0
  C  C20  1  0.26290000  0.24410000  0.02380000  1.0
  C  C21  1  0.76290000  0.74410000  0.02380000  1.0
  C  C22  1  0.73710000  0.75590000  0.52380000  1.0
  C  C23  1  0.23710000  0.25590000  0.52380000  1.0
  C  C24  1  0.73710000  0.24410000  0.47620000  1.0
  C  C25  1  0.23710000  0.74410000  0.47620000  1.0
  C  C26  1  0.26290000  0.75590000  0.97620000  1.0
  C  C27  1  0.76290000  0.25590000  0.97620000  1.0
  C  C28  1  0.00000000  0.12640000  0.75000000  1.0
  C  C29  1  0.50000000  0.62640000  0.75000000  1.0
  C  C30  1  0.00000000  0.87360000  0.25000000  1.0
  C  C31  1  0.50000000  0.37360000  0.25000000  1.0
  C  C32  1  0.42420000  0.00000000  0.50000000  1.0
  C  C33  1  0.92420000  0.50000000  0.50000000  1.0
  C  C34  1  0.57580000  0.00000000  0.00000000  1.0
  C  C35  1  0.07580000  0.50000000  0.00000000  1.0
  O  O36  1  0.16540000  0.09500000  0.72990000  1.0
  O  O37  1  0.51160000  0.05023000  0.57050000  1.0
  O  O38  1  0.32650000  0.18371000  0.98070000  1.0
  O  O39  1  0.17910000  0.25869000  0.15230000  1.0
  O  O40  1  0.66540000  0.59500000  0.72990000  1.0
  O  O41  1  0.01160000  0.55023000  0.57050000  1.0
  O  O42  1  0.82650000  0.68371000  0.98070000  1.0
  O  O43  1  0.67910000  0.75869000  0.15230000  1.0
  O  O44  1  0.83460000  0.90500000  0.22990000  1.0
  O  O45  1  0.48840000  0.94977000  0.07050000  1.0
  O  O46  1  0.67350000  0.81629000  0.48070000  1.0
  O  O47  1  0.82090000  0.74131000  0.65230000  1.0
  O  O48  1  0.33460000  0.40500000  0.22990000  1.0
  O  O49  1  0.98840000  0.44977000  0.07050000  1.0
  O  O50  1  0.17350000  0.31629000  0.48070000  1.0
  O  O51  1  0.32090000  0.24131000  0.65230000  1.0
  O  O52  1  0.83460000  0.09500000  0.77010000  1.0
  O  O53  1  0.48840000  0.05023000  0.92950000  1.0
  O  O54  1  0.67350000  0.18371000  0.51930000  1.0
  O  O55  1  0.82090000  0.25869000  0.34770000  1.0
  O  O56  1  0.33460000  0.59500000  0.77010000  1.0
  O  O57  1  0.98840000  0.55023000  0.92950000  1.0
  O  O58  1  0.17350000  0.68371000  0.51930000  1.0
  O  O59  1  0.32090000  0.75869000  0.34770000  1.0
  O  O60  1  0.16540000  0.90500000  0.27010000  1.0
  O  O61  1  0.51160000  0.94977000  0.42950000  1.0
  O  O62  1  0.32650000  0.81629000  0.01930000  1.0
  O  O63  1  0.17910000  0.74131000  0.84770000  1.0
  O  O64  1  0.66540000  0.40500000  0.27010000  1.0
  O  O65  1  0.01160000  0.44977000  0.42950000  1.0
  O  O66  1  0.82650000  0.31629000  0.01930000  1.0
  O  O67  1  0.67910000  0.24131000  0.84770000  1.0
