# generated using pymatgen
data_GdH4(CO2)4
_symmetry_space_group_name_H-M   'P 1'
_cell_length_a   6.69160000
_cell_length_b   18.58100000
_cell_length_c   8.49100000
_cell_angle_alpha   90.00000000
_cell_angle_beta   90.00000000
_cell_angle_gamma   90.00000000
_symmetry_Int_Tables_number   1
_chemical_formula_structural   GdH4(CO2)4
_chemical_formula_sum   'Gd4 H16 C16 O32'
_cell_volume   1055.74223702
_cell_formula_units_Z   4
loop_
 _symmetry_equiv_pos_site_id
 _symmetry_equiv_pos_as_xyz
  1  'x, y, z'
loop_
 _atom_site_type_symbol
 _atom_site_label
 _atom_site_symmetry_multiplicity
 _atom_site_fract_x
 _atom_site_fract_y
 _atom_site_fract_z
 _atom_site_occupancy
  Gd  Gd0  1  0.50000000  0.35730000  0.25000000  1.0
  Gd  Gd1  1  0.00000000  0.85730000  0.25000000  1.0
  Gd  Gd2  1  0.50000000  0.64270000  0.75000000  1.0
  Gd  Gd3  1  0.00000000  0.14270000  0.75000000  1.0
  H  H4  1  0.29230000  0.21930000  0.04040000  1.0
  H  H5  1  0.79230000  0.71930000  0.04040000  1.0
  H  H6  1  0.70770000  0.78070000  0.54040000  1.0
  H  H7  1  0.20770000  0.28070000  0.54040000  1.0
  H  H8  1  0.70770000  0.21930000  0.45960000  1.0
  H  H9  1  0.20770000  0.71930000  0.45960000  1.0
  H  H10  1  0.29230000  0.78070000  0.95960000  1.0
  H  H11  1  0.79230000  0.28070000  0.95960000  1.0
  H  H12  1  0.00000000  0.32560000  0.25000000  1.0
  H  H13  1  0.50000000  0.82560000  0.25000000  1.0
  H  H14  1  0.00000000  0.67440000  0.75000000  1.0
  H  H15  1  0.50000000  0.17440000  0.75000000  1.0
  H  H16  1  0.71100000  0.50000000  0.00000000  1.0
  H  H17  1  0.21100000  0.00000000  0.00000000  1.0
  H  H18  1  0.28900000  0.50000000  0.50000000  1.0
  H  H19  1  0.78900000  0.00000000  0.50000000  1.0
  C  C20  1  0.26750000  0.25760000  0.97250000  1.0
  C  C21  1  0.76750000  0.75760000  0.97250000  1.0
  C  C22  1  0.73250000  0.74240000  0.47250000  1.0
  C  C23  1  0.23250000  0.24240000  0.47250000  1.0
  C  C24  1  0.73250000  0.25760000  0.52750000  1.0
  C  C25  1  0.23250000  0.75760000  0.52750000  1.0
  C  C26  1  0.26750000  0.74240000  0.02750000  1.0
  C  C27  1  0.76750000  0.24240000  0.02750000  1.0
  C  C28  1  0.00000000  0.37570000  0.25000000  1.0
  C  C29  1  0.50000000  0.87570000  0.25000000  1.0
  C  C30  1  0.00000000  0.62430000  0.75000000  1.0
  C  C31  1  0.50000000  0.12430000  0.75000000  1.0
  C  C32  1  0.57350000  0.50000000  0.00000000  1.0
  C  C33  1  0.07350000  0.00000000  0.00000000  1.0
  C  C34  1  0.42650000  0.50000000  0.50000000  1.0
  C  C35  1  0.92650000  0.00000000  0.50000000  1.0
  O  O36  1  0.48500000  0.45009000  0.06770000  1.0
  O  O37  1  0.32250000  0.31801000  0.01560000  1.0
  O  O38  1  0.16300000  0.40620000  0.27350000  1.0
  O  O39  1  0.18160000  0.24351000  0.84590000  1.0
  O  O40  1  0.98500000  0.95009000  0.06770000  1.0
  O  O41  1  0.82250000  0.81801000  0.01560000  1.0
  O  O42  1  0.66300000  0.90620000  0.27350000  1.0
  O  O43  1  0.68160000  0.74351000  0.84590000  1.0
  O  O44  1  0.51500000  0.54991000  0.56770000  1.0
  O  O45  1  0.67750000  0.68199000  0.51560000  1.0
  O  O46  1  0.83700000  0.59380000  0.77350000  1.0
  O  O47  1  0.81840000  0.75649000  0.34590000  1.0
  O  O48  1  0.01500000  0.04991000  0.56770000  1.0
  O  O49  1  0.17750000  0.18199000  0.51560000  1.0
  O  O50  1  0.33700000  0.09380000  0.77350000  1.0
  O  O51  1  0.31840000  0.25649000  0.34590000  1.0
  O  O52  1  0.51500000  0.45009000  0.43230000  1.0
  O  O53  1  0.67750000  0.31801000  0.48440000  1.0
  O  O54  1  0.83700000  0.40620000  0.22650000  1.0
  O  O55  1  0.81840000  0.24351000  0.65410000  1.0
  O  O56  1  0.01500000  0.95009000  0.43230000  1.0
  O  O57  1  0.17750000  0.81801000  0.48440000  1.0
  O  O58  1  0.33700000  0.90620000  0.22650000  1.0
  O  O59  1  0.31840000  0.74351000  0.65410000  1.0
  O  O60  1  0.48500000  0.54991000  0.93230000  1.0
  O  O61  1  0.32250000  0.68199000  0.98440000  1.0
  O  O62  1  0.16300000  0.59380000  0.72650000  1.0
  O  O63  1  0.18160000  0.75649000  0.15410000  1.0
  O  O64  1  0.98500000  0.04991000  0.93230000  1.0
  O  O65  1  0.82250000  0.18199000  0.98440000  1.0
  O  O66  1  0.66300000  0.09380000  0.72650000  1.0
  O  O67  1  0.68160000  0.25649000  0.15410000  1.0
