# generated using pymatgen
data_MnH2(CO2)2
_symmetry_space_group_name_H-M   'P 1'
_cell_length_a   10.19590000
_cell_length_b   11.78560000
_cell_length_c   14.92240000
_cell_angle_alpha   91.85590000
_cell_angle_beta   90.00000000
_cell_angle_gamma   90.00000000
_symmetry_Int_Tables_number   1
_chemical_formula_structural   MnH2(CO2)2
_chemical_formula_sum   'Mn12 H24 C24 O48'
_cell_volume   1792.20658230
_cell_formula_units_Z   12
loop_
 _symmetry_equiv_pos_site_id
 _symmetry_equiv_pos_as_xyz
  1  'x, y, z'
loop_
 _atom_site_type_symbol
 _atom_site_label
 _atom_site_symmetry_multiplicity
 _atom_site_fract_x
 _atom_site_fract_y
 _atom_site_fract_z
 _atom_site_occupancy
  Mn  Mn0  1  0.06693000  0.01017000  0.43727000  1.0
  Mn  Mn1  1  0.37925000  0.00971000  0.38115000  1.0
  Mn  Mn2  1  0.45846000  0.25526000  0.25221000  1.0
  Mn  Mn3  1  0.54323000  0.49648000  0.11876000  1.0
  Mn  Mn4  1  0.85653000  0.48743000  0.06444000  1.0
  Mn  Mn5  1  0.45996000  0.75494000  0.24799000  1.0
  Mn  Mn6  1  0.56693000  0.98983000  0.56273000  1.0
  Mn  Mn7  1  0.87925000  0.99029000  0.61885000  1.0
  Mn  Mn8  1  0.95846000  0.74474000  0.74779000  1.0
  Mn  Mn9  1  0.04323000  0.50352000  0.88124000  1.0
  Mn  Mn10  1  0.35653000  0.51257000  0.93556000  1.0
  Mn  Mn11  1  0.95996000  0.24506000  0.75201000  1.0
  H  H12  1  0.21730000  0.09830000  0.61960000  1.0
  H  H13  1  0.08240000  0.81790000  0.28850000  1.0
  H  H14  1  0.00330000  0.26620000  0.49090000  1.0
  H  H15  1  0.16240000  0.25350000  0.27710000  1.0
  H  H16  1  0.60890000  0.95280000  0.17400000  1.0
  H  H17  1  0.16800000  0.78510000  0.52740000  1.0
  H  H18  1  0.74290000  0.24930000  0.22580000  1.0
  H  H19  1  0.30720000  0.55830000  0.32390000  1.0
  H  H20  1  0.25080000  0.29590000  0.03200000  1.0
  H  H21  1  0.70660000  0.39570000  0.88570000  1.0
  H  H22  1  0.83610000  0.69330000  0.20870000  1.0
  H  H23  1  0.43270000  0.77090000  0.98660000  1.0
  H  H24  1  0.71730000  0.90170000  0.38040000  1.0
  H  H25  1  0.58240000  0.18210000  0.71150000  1.0
  H  H26  1  0.50330000  0.73380000  0.50910000  1.0
  H  H27  1  0.66240000  0.74650000  0.72290000  1.0
  H  H28  1  0.10890000  0.04720000  0.82600000  1.0
  H  H29  1  0.66800000  0.21490000  0.47260000  1.0
  H  H30  1  0.24290000  0.75070000  0.77420000  1.0
  H  H31  1  0.80720000  0.44170000  0.67610000  1.0
  H  H32  1  0.75080000  0.70410000  0.96800000  1.0
  H  H33  1  0.20660000  0.60430000  0.11430000  1.0
  H  H34  1  0.33610000  0.30670000  0.79130000  1.0
  H  H35  1  0.93270000  0.22910000  0.01340000  1.0
  C  C36  1  0.28550000  0.07280000  0.58290000  1.0
  C  C37  1  0.17130000  0.83270000  0.29680000  1.0
  C  C38  1  0.97960000  0.22740000  0.54170000  1.0
  C  C39  1  0.17990000  0.19090000  0.31160000  1.0
  C  C40  1  0.55410000  0.99440000  0.21270000  1.0
  C  C41  1  0.10090000  0.80620000  0.56660000  1.0
  C  C42  1  0.73010000  0.31280000  0.19150000  1.0
  C  C43  1  0.36050000  0.51410000  0.28600000  1.0
  C  C44  1  0.31790000  0.31540000  0.07180000  1.0
  C  C45  1  0.63830000  0.42510000  0.92060000  1.0
  C  C46  1  0.74770000  0.67630000  0.20030000  1.0
  C  C47  1  0.44940000  0.73260000  0.03890000  1.0
  C  C48  1  0.78550000  0.92720000  0.41710000  1.0
  C  C49  1  0.67130000  0.16730000  0.70320000  1.0
  C  C50  1  0.47960000  0.77260000  0.45830000  1.0
  C  C51  1  0.67990000  0.80910000  0.68840000  1.0
  C  C52  1  0.05410000  0.00560000  0.78730000  1.0
  C  C53  1  0.60090000  0.19380000  0.43340000  1.0
  C  C54  1  0.23010000  0.68720000  0.80850000  1.0
  C  C55  1  0.86050000  0.48590000  0.71400000  1.0
  C  C56  1  0.81790000  0.68460000  0.92820000  1.0
  C  C57  1  0.13830000  0.57490000  0.07940000  1.0
  C  C58  1  0.24770000  0.32370000  0.79970000  1.0
  C  C59  1  0.94940000  0.26740000  0.96110000  1.0
  O  O60  1  0.25760000  0.05380000  0.49970000  1.0
  O  O61  1  0.39150000  0.06100000  0.61860000  1.0
  O  O62  1  0.20190000  0.90770000  0.35510000  1.0
  O  O63  1  0.25110000  0.77590000  0.24860000  1.0
  O  O64  1  0.96800000  0.11970000  0.53490000  1.0
  O  O65  1  0.96070000  0.28360000  0.61330000  1.0
  O  O66  1  0.08610000  0.14670000  0.34870000  1.0
  O  O67  1  0.30150000  0.15800000  0.31650000  1.0
  O  O68  1  0.48530000  0.94050000  0.26800000  1.0
  O  O69  1  0.55260000  0.10140000  0.20700000  1.0
  O  O70  1  0.04180000  0.89850000  0.55220000  1.0
  O  O71  1  0.07650000  0.74140000  0.62910000  1.0
  O  O72  1  0.61680000  0.35030000  0.18770000  1.0
  O  O73  1  0.82990000  0.35270000  0.15360000  1.0
  O  O74  1  0.35980000  0.41270000  0.29660000  1.0
  O  O75  1  0.42850000  0.56720000  0.22710000  1.0
  O  O76  1  0.33570000  0.25200000  0.13380000  1.0
  O  O77  1  0.38170000  0.40520000  0.05600000  1.0
  O  O78  1  0.66150000  0.44580000  0.00260000  1.0
  O  O79  1  0.52960000  0.44120000  0.88220000  1.0
  O  O80  1  0.72140000  0.59550000  0.14300000  1.0
  O  O81  1  0.67170000  0.73210000  0.24400000  1.0
  O  O82  1  0.45880000  0.62410000  0.03110000  1.0
  O  O83  1  0.45990000  0.79100000  0.10740000  1.0
  O  O84  1  0.75760000  0.94620000  0.50030000  1.0
  O  O85  1  0.89150000  0.93900000  0.38140000  1.0
  O  O86  1  0.70190000  0.09230000  0.64490000  1.0
  O  O87  1  0.75110000  0.22410000  0.75140000  1.0
  O  O88  1  0.46800000  0.88030000  0.46510000  1.0
  O  O89  1  0.46070000  0.71640000  0.38670000  1.0
  O  O90  1  0.58610000  0.85330000  0.65130000  1.0
  O  O91  1  0.80150000  0.84200000  0.68350000  1.0
  O  O92  1  0.98530000  0.05950000  0.73200000  1.0
  O  O93  1  0.05260000  0.89860000  0.79300000  1.0
  O  O94  1  0.54180000  0.10150000  0.44780000  1.0
  O  O95  1  0.57650000  0.25860000  0.37090000  1.0
  O  O96  1  0.11680000  0.64970000  0.81230000  1.0
  O  O97  1  0.32990000  0.64730000  0.84640000  1.0
  O  O98  1  0.85980000  0.58730000  0.70340000  1.0
  O  O99  1  0.92850000  0.43280000  0.77290000  1.0
  O  O100  1  0.83570000  0.74800000  0.86620000  1.0
  O  O101  1  0.88170000  0.59480000  0.94400000  1.0
  O  O102  1  0.16150000  0.55420000  0.99740000  1.0
  O  O103  1  0.02960000  0.55880000  0.11780000  1.0
  O  O104  1  0.22140000  0.40450000  0.85700000  1.0
  O  O105  1  0.17170000  0.26790000  0.75600000  1.0
  O  O106  1  0.95880000  0.37590000  0.96890000  1.0
  O  O107  1  0.95990000  0.20900000  0.89260000  1.0
