# generated using pymatgen
data_MnH2(CO2)2
_symmetry_space_group_name_H-M   'P 1'
_cell_length_a   10.20720000
_cell_length_b   11.75610000
_cell_length_c   14.96140000
_cell_angle_alpha   91.86390000
_cell_angle_beta   90.00000000
_cell_angle_gamma   90.00000000
_symmetry_Int_Tables_number   1
_chemical_formula_structural   MnH2(CO2)2
_chemical_formula_sum   'Mn12 H24 C24 O48'
_cell_volume   1794.37118882
_cell_formula_units_Z   12
loop_
 _symmetry_equiv_pos_site_id
 _symmetry_equiv_pos_as_xyz
  1  'x, y, z'
loop_
 _atom_site_type_symbol
 _atom_site_label
 _atom_site_symmetry_multiplicity
 _atom_site_fract_x
 _atom_site_fract_y
 _atom_site_fract_z
 _atom_site_occupancy
  Mn  Mn0  1  0.91931000  0.75679000  0.13165000  1.0
  Mn  Mn1  1  0.10688000  0.73916000  0.31282000  1.0
  Mn  Mn2  1  0.41931000  0.74321000  0.36835000  1.0
  Mn  Mn3  1  0.60688000  0.76084000  0.18718000  1.0
  Mn  Mn4  1  0.08069000  0.24321000  0.86835000  1.0
  Mn  Mn5  1  0.89312000  0.26084000  0.68718000  1.0
  Mn  Mn6  1  0.58069000  0.25679000  0.63165000  1.0
  Mn  Mn7  1  0.39312000  0.23916000  0.81282000  1.0
  Mn  Mn8  1  0.00000000  0.50000000  0.00000000  1.0
  Mn  Mn9  1  0.50000000  0.00000000  0.50000000  1.0
  Mn  Mn10  1  0.00000000  0.00000000  0.00000000  1.0
  Mn  Mn11  1  0.50000000  0.50000000  0.50000000  1.0
  H  H12  1  0.75300000  0.84680000  0.37080000  1.0
  H  H13  1  0.03400000  0.48330000  0.26530000  1.0
  H  H14  1  0.61500000  0.56610000  0.04110000  1.0
  H  H15  1  0.21400000  0.96180000  0.22380000  1.0
  H  H16  1  0.15300000  0.69680000  0.92580000  1.0
  H  H17  1  0.70700000  0.99630000  0.02730000  1.0
  H  H18  1  0.25300000  0.65320000  0.12920000  1.0
  H  H19  1  0.53400000  0.01670000  0.23470000  1.0
  H  H20  1  0.11500000  0.93390000  0.45890000  1.0
  H  H21  1  0.71400000  0.53820000  0.27620000  1.0
  H  H22  1  0.65300000  0.80320000  0.57420000  1.0
  H  H23  1  0.20700000  0.50370000  0.47270000  1.0
  H  H24  1  0.24700000  0.15320000  0.62920000  1.0
  H  H25  1  0.96600000  0.51670000  0.73470000  1.0
  H  H26  1  0.38500000  0.43390000  0.95890000  1.0
  H  H27  1  0.78600000  0.03820000  0.77620000  1.0
  H  H28  1  0.84700000  0.30320000  0.07420000  1.0
  H  H29  1  0.29300000  0.00370000  0.97270000  1.0
  H  H30  1  0.74700000  0.34680000  0.87080000  1.0
  H  H31  1  0.46600000  0.98330000  0.76530000  1.0
  H  H32  1  0.88500000  0.06610000  0.54110000  1.0
  H  H33  1  0.28600000  0.46180000  0.72380000  1.0
  H  H34  1  0.34700000  0.19680000  0.42580000  1.0
  H  H35  1  0.79300000  0.49630000  0.52730000  1.0
  C  C36  1  0.82540000  0.82406000  0.33146000  1.0
  C  C37  1  0.01860000  0.51989000  0.20859000  1.0
  C  C38  1  0.71240000  0.57689000  0.04999000  1.0
  C  C39  1  0.14040000  0.94108000  0.18048000  1.0
  C  C40  1  0.09710000  0.74053000  0.96413000  1.0
  C  C41  1  0.72450000  0.93679000  0.05969000  1.0
  C  C42  1  0.32540000  0.67594000  0.16854000  1.0
  C  C43  1  0.51860000  0.98011000  0.29141000  1.0
  C  C44  1  0.21240000  0.92311000  0.45001000  1.0
  C  C45  1  0.64040000  0.55892000  0.31952000  1.0
  C  C46  1  0.59710000  0.75947000  0.53587000  1.0
  C  C47  1  0.22450000  0.56321000  0.44031000  1.0
  C  C48  1  0.17460000  0.17594000  0.66854000  1.0
  C  C49  1  0.98140000  0.48011000  0.79141000  1.0
  C  C50  1  0.28760000  0.42311000  0.95001000  1.0
  C  C51  1  0.85960000  0.05892000  0.81952000  1.0
  C  C52  1  0.90290000  0.25947000  0.03587000  1.0
  C  C53  1  0.27550000  0.06321000  0.94031000  1.0
  C  C54  1  0.67460000  0.32406000  0.83146000  1.0
  C  C55  1  0.48140000  0.01989000  0.70859000  1.0
  C  C56  1  0.78760000  0.07689000  0.54999000  1.0
  C  C57  1  0.35960000  0.44108000  0.68048000  1.0
  C  C58  1  0.40290000  0.24053000  0.46413000  1.0
  C  C59  1  0.77550000  0.43679000  0.55969000  1.0
  O  O60  1  0.79934000  0.80393000  0.24918000  1.0
  O  O61  1  0.93310000  0.81176000  0.36781000  1.0
  O  O62  1  0.00751000  0.62768000  0.21629000  1.0
  O  O63  1  0.00210000  0.46197000  0.13988000  1.0
  O  O64  1  0.74211000  0.65519000  0.10712000  1.0
  O  O65  1  0.79002000  0.52016000  0.00331000  1.0
  O  O66  1  0.08066000  0.84900000  0.19604000  1.0
  O  O67  1  0.11890000  0.00457000  0.11860000  1.0
  O  O68  1  0.02890000  0.68666000  0.02076000  1.0
  O  O69  1  0.09836000  0.84413000  0.95566000  1.0
  O  O70  1  0.84242000  0.90292000  0.06436000  1.0
  O  O71  1  0.62893000  0.89514000  0.09719000  1.0
  O  O72  1  0.29934000  0.69607000  0.25082000  1.0
  O  O73  1  0.43310000  0.68824000  0.13219000  1.0
  O  O74  1  0.50751000  0.87232000  0.28371000  1.0
  O  O75  1  0.50210000  0.03803000  0.36012000  1.0
  O  O76  1  0.24211000  0.84481000  0.39288000  1.0
  O  O77  1  0.29002000  0.97984000  0.49669000  1.0
  O  O78  1  0.58066000  0.65100000  0.30396000  1.0
  O  O79  1  0.61890000  0.49543000  0.38140000  1.0
  O  O80  1  0.52890000  0.81334000  0.47924000  1.0
  O  O81  1  0.59836000  0.65587000  0.54434000  1.0
  O  O82  1  0.34242000  0.59708000  0.43564000  1.0
  O  O83  1  0.12893000  0.60486000  0.40281000  1.0
  O  O84  1  0.20066000  0.19607000  0.75082000  1.0
  O  O85  1  0.06690000  0.18824000  0.63219000  1.0
  O  O86  1  0.99249000  0.37232000  0.78371000  1.0
  O  O87  1  0.99790000  0.53803000  0.86012000  1.0
  O  O88  1  0.25789000  0.34481000  0.89288000  1.0
  O  O89  1  0.20998000  0.47984000  0.99669000  1.0
  O  O90  1  0.91934000  0.15100000  0.80396000  1.0
  O  O91  1  0.88110000  0.99543000  0.88140000  1.0
  O  O92  1  0.97110000  0.31334000  0.97924000  1.0
  O  O93  1  0.90164000  0.15587000  0.04434000  1.0
  O  O94  1  0.15758000  0.09708000  0.93564000  1.0
  O  O95  1  0.37107000  0.10486000  0.90281000  1.0
  O  O96  1  0.70066000  0.30393000  0.74918000  1.0
  O  O97  1  0.56690000  0.31176000  0.86781000  1.0
  O  O98  1  0.49249000  0.12768000  0.71629000  1.0
  O  O99  1  0.49790000  0.96197000  0.63988000  1.0
  O  O100  1  0.75789000  0.15519000  0.60712000  1.0
  O  O101  1  0.70998000  0.02016000  0.50331000  1.0
  O  O102  1  0.41934000  0.34900000  0.69604000  1.0
  O  O103  1  0.38110000  0.50457000  0.61860000  1.0
  O  O104  1  0.47110000  0.18666000  0.52076000  1.0
  O  O105  1  0.40164000  0.34413000  0.45566000  1.0
  O  O106  1  0.65758000  0.40292000  0.56436000  1.0
  O  O107  1  0.87107000  0.39514000  0.59719000  1.0
