# generated using pymatgen
data_Ag2H10(C3N2)5
_symmetry_space_group_name_H-M   'P 1'
_cell_length_a   17.00760000
_cell_length_b   17.00760000
_cell_length_c   7.85910000
_cell_angle_alpha   90.00000000
_cell_angle_beta   90.00000000
_cell_angle_gamma   90.00000000
_symmetry_Int_Tables_number   1
_chemical_formula_structural   Ag2H10(C3N2)5
_chemical_formula_sum   'Ag8 H40 C60 N40'
_cell_volume   2273.31114538
_cell_formula_units_Z   4
loop_
 _symmetry_equiv_pos_site_id
 _symmetry_equiv_pos_as_xyz
  1  'x, y, z'
loop_
 _atom_site_type_symbol
 _atom_site_label
 _atom_site_symmetry_multiplicity
 _atom_site_fract_x
 _atom_site_fract_y
 _atom_site_fract_z
 _atom_site_occupancy
  Ag  Ag0  1  0.18735000  0.18735000  0.75893000  1.0
  Ag  Ag1  1  0.81265000  0.81265000  0.75893000  1.0
  Ag  Ag2  1  0.81265000  0.81265000  0.24107000  1.0
  Ag  Ag3  1  0.18735000  0.18735000  0.24107000  1.0
  Ag  Ag4  1  0.68735000  0.31265000  0.25893000  1.0
  Ag  Ag5  1  0.31265000  0.68735000  0.25893000  1.0
  Ag  Ag6  1  0.31265000  0.68735000  0.74107000  1.0
  Ag  Ag7  1  0.68735000  0.31265000  0.74107000  1.0
  H  H8  1  0.68790000  0.12190000  0.21140000  1.0
  H  H9  1  0.73290000  0.97830000  0.21180000  1.0
  H  H10  1  0.31210000  0.87810000  0.21140000  1.0
  H  H11  1  0.26710000  0.02170000  0.21180000  1.0
  H  H12  1  0.12190000  0.68790000  0.78860000  1.0
  H  H13  1  0.97830000  0.73290000  0.78820000  1.0
  H  H14  1  0.87810000  0.31210000  0.78860000  1.0
  H  H15  1  0.02170000  0.26710000  0.78820000  1.0
  H  H16  1  0.31210000  0.87810000  0.78860000  1.0
  H  H17  1  0.26710000  0.02170000  0.78820000  1.0
  H  H18  1  0.68790000  0.12190000  0.78860000  1.0
  H  H19  1  0.73290000  0.97830000  0.78820000  1.0
  H  H20  1  0.87810000  0.31210000  0.21140000  1.0
  H  H21  1  0.02170000  0.26710000  0.21180000  1.0
  H  H22  1  0.12190000  0.68790000  0.21140000  1.0
  H  H23  1  0.97830000  0.73290000  0.21180000  1.0
  H  H24  1  0.05300000  0.05300000  0.71300000  1.0
  H  H25  1  0.94700000  0.94700000  0.71300000  1.0
  H  H26  1  0.94700000  0.94700000  0.28700000  1.0
  H  H27  1  0.05300000  0.05300000  0.28700000  1.0
  H  H28  1  0.37810000  0.18790000  0.71140000  1.0
  H  H29  1  0.52170000  0.23290000  0.71180000  1.0
  H  H30  1  0.62190000  0.81210000  0.71140000  1.0
  H  H31  1  0.47830000  0.76710000  0.71180000  1.0
  H  H32  1  0.81210000  0.62190000  0.28860000  1.0
  H  H33  1  0.76710000  0.47830000  0.28820000  1.0
  H  H34  1  0.18790000  0.37810000  0.28860000  1.0
  H  H35  1  0.23290000  0.52170000  0.28820000  1.0
  H  H36  1  0.62190000  0.81210000  0.28860000  1.0
  H  H37  1  0.47830000  0.76710000  0.28820000  1.0
  H  H38  1  0.37810000  0.18790000  0.28860000  1.0
  H  H39  1  0.52170000  0.23290000  0.28820000  1.0
  H  H40  1  0.18790000  0.37810000  0.71140000  1.0
  H  H41  1  0.23290000  0.52170000  0.71180000  1.0
  H  H42  1  0.81210000  0.62190000  0.71140000  1.0
  H  H43  1  0.76710000  0.47830000  0.71180000  1.0
  H  H44  1  0.55300000  0.44700000  0.21300000  1.0
  H  H45  1  0.44700000  0.55300000  0.21300000  1.0
  H  H46  1  0.44700000  0.55300000  0.78700000  1.0
  H  H47  1  0.55300000  0.44700000  0.78700000  1.0
  C  C48  1  0.69030000  0.12130000  0.33090000  1.0
  C  C49  1  0.71020000  0.05045000  0.41190000  1.0
  C  C50  1  0.73340000  0.97980000  0.33140000  1.0
  C  C51  1  0.30970000  0.87870000  0.33090000  1.0
  C  C52  1  0.28980000  0.94955000  0.41190000  1.0
  C  C53  1  0.26660000  0.02020000  0.33140000  1.0
  C  C54  1  0.12130000  0.69030000  0.66910000  1.0
  C  C55  1  0.05045000  0.71020000  0.58810000  1.0
  C  C56  1  0.97980000  0.73340000  0.66860000  1.0
  C  C57  1  0.87870000  0.30970000  0.66910000  1.0
  C  C58  1  0.94955000  0.28980000  0.58810000  1.0
  C  C59  1  0.02020000  0.26660000  0.66860000  1.0
  C  C60  1  0.30970000  0.87870000  0.66910000  1.0
  C  C61  1  0.28980000  0.94955000  0.58810000  1.0
  C  C62  1  0.26660000  0.02020000  0.66860000  1.0
  C  C63  1  0.69030000  0.12130000  0.66910000  1.0
  C  C64  1  0.71020000  0.05045000  0.58810000  1.0
  C  C65  1  0.73340000  0.97980000  0.66860000  1.0
  C  C66  1  0.87870000  0.30970000  0.33090000  1.0
  C  C67  1  0.94955000  0.28980000  0.41190000  1.0
  C  C68  1  0.02020000  0.26660000  0.33140000  1.0
  C  C69  1  0.12130000  0.69030000  0.33090000  1.0
  C  C70  1  0.05045000  0.71020000  0.41190000  1.0
  C  C71  1  0.97980000  0.73340000  0.33140000  1.0
  C  C72  1  0.05220000  0.05220000  0.83260000  1.0
  C  C73  1  0.94780000  0.94780000  0.83260000  1.0
  C  C74  1  0.94780000  0.94780000  0.16740000  1.0
  C  C75  1  0.05220000  0.05220000  0.16740000  1.0
  C  C76  1  0.00000000  0.00000000  0.91340000  1.0
  C  C77  1  0.00000000  0.00000000  0.08660000  1.0
  C  C78  1  0.37870000  0.19030000  0.83090000  1.0
  C  C79  1  0.44955000  0.21020000  0.91190000  1.0
  C  C80  1  0.52020000  0.23340000  0.83140000  1.0
  C  C81  1  0.62130000  0.80970000  0.83090000  1.0
  C  C82  1  0.55045000  0.78980000  0.91190000  1.0
  C  C83  1  0.47980000  0.76660000  0.83140000  1.0
  C  C84  1  0.80970000  0.62130000  0.16910000  1.0
  C  C85  1  0.78980000  0.55045000  0.08810000  1.0
  C  C86  1  0.76660000  0.47980000  0.16860000  1.0
  C  C87  1  0.19030000  0.37870000  0.16910000  1.0
  C  C88  1  0.21020000  0.44955000  0.08810000  1.0
  C  C89  1  0.23340000  0.52020000  0.16860000  1.0
  C  C90  1  0.62130000  0.80970000  0.16910000  1.0
  C  C91  1  0.55045000  0.78980000  0.08810000  1.0
  C  C92  1  0.47980000  0.76660000  0.16860000  1.0
  C  C93  1  0.37870000  0.19030000  0.16910000  1.0
  C  C94  1  0.44955000  0.21020000  0.08810000  1.0
  C  C95  1  0.52020000  0.23340000  0.16860000  1.0
  C  C96  1  0.19030000  0.37870000  0.83090000  1.0
  C  C97  1  0.21020000  0.44955000  0.91190000  1.0
  C  C98  1  0.23340000  0.52020000  0.83140000  1.0
  C  C99  1  0.80970000  0.62130000  0.83090000  1.0
  C  C100  1  0.78980000  0.55045000  0.91190000  1.0
  C  C101  1  0.76660000  0.47980000  0.83140000  1.0
  C  C102  1  0.55220000  0.44780000  0.33260000  1.0
  C  C103  1  0.44780000  0.55220000  0.33260000  1.0
  C  C104  1  0.44780000  0.55220000  0.66740000  1.0
  C  C105  1  0.55220000  0.44780000  0.66740000  1.0
  C  C106  1  0.50000000  0.50000000  0.41340000  1.0
  C  C107  1  0.50000000  0.50000000  0.58660000  1.0
  N  N108  1  0.67510000  0.18619000  0.41240000  1.0
  N  N109  1  0.75562000  0.91647000  0.41260000  1.0
  N  N110  1  0.32490000  0.81381000  0.41240000  1.0
  N  N111  1  0.24438000  0.08353000  0.41260000  1.0
  N  N112  1  0.18619000  0.67510000  0.58760000  1.0
  N  N113  1  0.91647000  0.75562000  0.58740000  1.0
  N  N114  1  0.81381000  0.32490000  0.58760000  1.0
  N  N115  1  0.08353000  0.24438000  0.58740000  1.0
  N  N116  1  0.32490000  0.81381000  0.58760000  1.0
  N  N117  1  0.24438000  0.08353000  0.58740000  1.0
  N  N118  1  0.67510000  0.18619000  0.58760000  1.0
  N  N119  1  0.75562000  0.91647000  0.58740000  1.0
  N  N120  1  0.81381000  0.32490000  0.41240000  1.0
  N  N121  1  0.08353000  0.24438000  0.41260000  1.0
  N  N122  1  0.18619000  0.67510000  0.41240000  1.0
  N  N123  1  0.91647000  0.75562000  0.41260000  1.0
  N  N124  1  0.09964000  0.09964000  0.91350000  1.0
  N  N125  1  0.90036000  0.90036000  0.91350000  1.0
  N  N126  1  0.90036000  0.90036000  0.08650000  1.0
  N  N127  1  0.09964000  0.09964000  0.08650000  1.0
  N  N128  1  0.31381000  0.17510000  0.91240000  1.0
  N  N129  1  0.58353000  0.25562000  0.91260000  1.0
  N  N130  1  0.68619000  0.82490000  0.91240000  1.0
  N  N131  1  0.41647000  0.74438000  0.91260000  1.0
  N  N132  1  0.82490000  0.68619000  0.08760000  1.0
  N  N133  1  0.74438000  0.41647000  0.08740000  1.0
  N  N134  1  0.17510000  0.31381000  0.08760000  1.0
  N  N135  1  0.25562000  0.58353000  0.08740000  1.0
  N  N136  1  0.68619000  0.82490000  0.08760000  1.0
  N  N137  1  0.41647000  0.74438000  0.08740000  1.0
  N  N138  1  0.31381000  0.17510000  0.08760000  1.0
  N  N139  1  0.58353000  0.25562000  0.08740000  1.0
  N  N140  1  0.17510000  0.31381000  0.91240000  1.0
  N  N141  1  0.25562000  0.58353000  0.91260000  1.0
  N  N142  1  0.82490000  0.68619000  0.91240000  1.0
  N  N143  1  0.74438000  0.41647000  0.91260000  1.0
  N  N144  1  0.59964000  0.40036000  0.41350000  1.0
  N  N145  1  0.40036000  0.59964000  0.41350000  1.0
  N  N146  1  0.40036000  0.59964000  0.58650000  1.0
  N  N147  1  0.59964000  0.40036000  0.58650000  1.0
