# generated using pymatgen
data_AlH7C12O5
_symmetry_space_group_name_H-M   'P 1'
_cell_length_a   21.10120000
_cell_length_b   21.10120000
_cell_length_c   6.60950000
_cell_angle_alpha   90.00000000
_cell_angle_beta   90.00000000
_cell_angle_gamma   90.00000000
_symmetry_Int_Tables_number   1
_chemical_formula_structural   AlH7C12O5
_chemical_formula_sum   'Al8 H56 C96 O40'
_cell_volume   2942.95020960
_cell_formula_units_Z   8
loop_
 _symmetry_equiv_pos_site_id
 _symmetry_equiv_pos_as_xyz
  1  'x, y, z'
loop_
 _atom_site_type_symbol
 _atom_site_label
 _atom_site_symmetry_multiplicity
 _atom_site_fract_x
 _atom_site_fract_y
 _atom_site_fract_z
 _atom_site_occupancy
  Al  Al0  1  0.25000000  0.75000000  0.00000000  1.0
  Al  Al1  1  0.75000000  0.25000000  0.00000000  1.0
  Al  Al2  1  0.75000000  0.75000000  0.00000000  1.0
  Al  Al3  1  0.25000000  0.25000000  0.00000000  1.0
  Al  Al4  1  0.25000000  0.75000000  0.50000000  1.0
  Al  Al5  1  0.75000000  0.25000000  0.50000000  1.0
  Al  Al6  1  0.75000000  0.75000000  0.50000000  1.0
  Al  Al7  1  0.25000000  0.25000000  0.50000000  1.0
  H  H8  1  0.06000000  0.21000000  0.53000000  1.0
  H  H9  1  0.12000000  0.32200000  0.93900000  1.0
  H  H10  1  0.06000000  0.37000000  0.65000000  1.0
  H  H11  1  0.94000000  0.79000000  0.53000000  1.0
  H  H12  1  0.88000000  0.67800000  0.93900000  1.0
  H  H13  1  0.94000000  0.63000000  0.65000000  1.0
  H  H14  1  0.29000000  0.56000000  0.53000000  1.0
  H  H15  1  0.17800000  0.62000000  0.93900000  1.0
  H  H16  1  0.13000000  0.56000000  0.65000000  1.0
  H  H17  1  0.71000000  0.44000000  0.53000000  1.0
  H  H18  1  0.82200000  0.38000000  0.93900000  1.0
  H  H19  1  0.87000000  0.44000000  0.65000000  1.0
  H  H20  1  0.44000000  0.71000000  0.47000000  1.0
  H  H21  1  0.38000000  0.82200000  0.06100000  1.0
  H  H22  1  0.44000000  0.87000000  0.35000000  1.0
  H  H23  1  0.56000000  0.29000000  0.47000000  1.0
  H  H24  1  0.62000000  0.17800000  0.06100000  1.0
  H  H25  1  0.56000000  0.13000000  0.35000000  1.0
  H  H26  1  0.21000000  0.06000000  0.47000000  1.0
  H  H27  1  0.32200000  0.12000000  0.06100000  1.0
  H  H28  1  0.37000000  0.06000000  0.35000000  1.0
  H  H29  1  0.79000000  0.94000000  0.47000000  1.0
  H  H30  1  0.67800000  0.88000000  0.06100000  1.0
  H  H31  1  0.63000000  0.94000000  0.35000000  1.0
  H  H32  1  0.44000000  0.29000000  0.47000000  1.0
  H  H33  1  0.38000000  0.17800000  0.06100000  1.0
  H  H34  1  0.44000000  0.13000000  0.35000000  1.0
  H  H35  1  0.56000000  0.71000000  0.47000000  1.0
  H  H36  1  0.62000000  0.82200000  0.06100000  1.0
  H  H37  1  0.56000000  0.87000000  0.35000000  1.0
  H  H38  1  0.21000000  0.94000000  0.47000000  1.0
  H  H39  1  0.32200000  0.88000000  0.06100000  1.0
  H  H40  1  0.37000000  0.94000000  0.35000000  1.0
  H  H41  1  0.79000000  0.06000000  0.47000000  1.0
  H  H42  1  0.67800000  0.12000000  0.06100000  1.0
  H  H43  1  0.63000000  0.06000000  0.35000000  1.0
  H  H44  1  0.06000000  0.79000000  0.53000000  1.0
  H  H45  1  0.12000000  0.67800000  0.93900000  1.0
  H  H46  1  0.06000000  0.63000000  0.65000000  1.0
  H  H47  1  0.94000000  0.21000000  0.53000000  1.0
  H  H48  1  0.88000000  0.32200000  0.93900000  1.0
  H  H49  1  0.94000000  0.37000000  0.65000000  1.0
  H  H50  1  0.29000000  0.44000000  0.53000000  1.0
  H  H51  1  0.17800000  0.38000000  0.93900000  1.0
  H  H52  1  0.13000000  0.44000000  0.65000000  1.0
  H  H53  1  0.71000000  0.56000000  0.53000000  1.0
  H  H54  1  0.82200000  0.62000000  0.93900000  1.0
  H  H55  1  0.87000000  0.56000000  0.65000000  1.0
  H  H56  1  0.30470000  0.19530000  0.28500000  1.0
  H  H57  1  0.69530000  0.80470000  0.28500000  1.0
  H  H58  1  0.30470000  0.80470000  0.28500000  1.0
  H  H59  1  0.69530000  0.19530000  0.28500000  1.0
  H  H60  1  0.19530000  0.69530000  0.71500000  1.0
  H  H61  1  0.80470000  0.30470000  0.71500000  1.0
  H  H62  1  0.19530000  0.30470000  0.71500000  1.0
  H  H63  1  0.80470000  0.69530000  0.71500000  1.0
  C  C64  1  0.13900000  0.25300000  0.27000000  1.0
  C  C65  1  0.06800000  0.25700000  0.26000000  1.0
  C  C66  1  0.03400000  0.28900000  0.09700000  1.0
  C  C67  1  0.03400000  0.23000000  0.41000000  1.0
  C  C68  1  0.06800000  0.32200000  0.93900000  1.0
  C  C69  1  0.03400000  0.35000000  0.77200000  1.0
  C  C70  1  0.86100000  0.74700000  0.27000000  1.0
  C  C71  1  0.93200000  0.74300000  0.26000000  1.0
  C  C72  1  0.96600000  0.71100000  0.09700000  1.0
  C  C73  1  0.96600000  0.77000000  0.41000000  1.0
  C  C74  1  0.93200000  0.67800000  0.93900000  1.0
  C  C75  1  0.96600000  0.65000000  0.77200000  1.0
  C  C76  1  0.24700000  0.63900000  0.27000000  1.0
  C  C77  1  0.24300000  0.56800000  0.26000000  1.0
  C  C78  1  0.21100000  0.53400000  0.09700000  1.0
  C  C79  1  0.27000000  0.53400000  0.41000000  1.0
  C  C80  1  0.17800000  0.56800000  0.93900000  1.0
  C  C81  1  0.15000000  0.53400000  0.77200000  1.0
  C  C82  1  0.75300000  0.36100000  0.27000000  1.0
  C  C83  1  0.75700000  0.43200000  0.26000000  1.0
  C  C84  1  0.78900000  0.46600000  0.09700000  1.0
  C  C85  1  0.73000000  0.46600000  0.41000000  1.0
  C  C86  1  0.82200000  0.43200000  0.93900000  1.0
  C  C87  1  0.85000000  0.46600000  0.77200000  1.0
  C  C88  1  0.36100000  0.75300000  0.73000000  1.0
  C  C89  1  0.43200000  0.75700000  0.74000000  1.0
  C  C90  1  0.46600000  0.78900000  0.90300000  1.0
  C  C91  1  0.46600000  0.73000000  0.59000000  1.0
  C  C92  1  0.43200000  0.82200000  0.06100000  1.0
  C  C93  1  0.46600000  0.85000000  0.22800000  1.0
  C  C94  1  0.63900000  0.24700000  0.73000000  1.0
  C  C95  1  0.56800000  0.24300000  0.74000000  1.0
  C  C96  1  0.53400000  0.21100000  0.90300000  1.0
  C  C97  1  0.53400000  0.27000000  0.59000000  1.0
  C  C98  1  0.56800000  0.17800000  0.06100000  1.0
  C  C99  1  0.53400000  0.15000000  0.22800000  1.0
  C  C100  1  0.25300000  0.13900000  0.73000000  1.0
  C  C101  1  0.25700000  0.06800000  0.74000000  1.0
  C  C102  1  0.28900000  0.03400000  0.90300000  1.0
  C  C103  1  0.23000000  0.03400000  0.59000000  1.0
  C  C104  1  0.32200000  0.06800000  0.06100000  1.0
  C  C105  1  0.35000000  0.03400000  0.22800000  1.0
  C  C106  1  0.74700000  0.86100000  0.73000000  1.0
  C  C107  1  0.74300000  0.93200000  0.74000000  1.0
  C  C108  1  0.71100000  0.96600000  0.90300000  1.0
  C  C109  1  0.77000000  0.96600000  0.59000000  1.0
  C  C110  1  0.67800000  0.93200000  0.06100000  1.0
  C  C111  1  0.65000000  0.96600000  0.22800000  1.0
  C  C112  1  0.36100000  0.24700000  0.73000000  1.0
  C  C113  1  0.43200000  0.24300000  0.74000000  1.0
  C  C114  1  0.46600000  0.21100000  0.90300000  1.0
  C  C115  1  0.46600000  0.27000000  0.59000000  1.0
  C  C116  1  0.43200000  0.17800000  0.06100000  1.0
  C  C117  1  0.46600000  0.15000000  0.22800000  1.0
  C  C118  1  0.63900000  0.75300000  0.73000000  1.0
  C  C119  1  0.56800000  0.75700000  0.74000000  1.0
  C  C120  1  0.53400000  0.78900000  0.90300000  1.0
  C  C121  1  0.53400000  0.73000000  0.59000000  1.0
  C  C122  1  0.56800000  0.82200000  0.06100000  1.0
  C  C123  1  0.53400000  0.85000000  0.22800000  1.0
  C  C124  1  0.25300000  0.86100000  0.73000000  1.0
  C  C125  1  0.25700000  0.93200000  0.74000000  1.0
  C  C126  1  0.28900000  0.96600000  0.90300000  1.0
  C  C127  1  0.23000000  0.96600000  0.59000000  1.0
  C  C128  1  0.32200000  0.93200000  0.06100000  1.0
  C  C129  1  0.35000000  0.96600000  0.22800000  1.0
  C  C130  1  0.74700000  0.13900000  0.73000000  1.0
  C  C131  1  0.74300000  0.06800000  0.74000000  1.0
  C  C132  1  0.71100000  0.03400000  0.90300000  1.0
  C  C133  1  0.77000000  0.03400000  0.59000000  1.0
  C  C134  1  0.67800000  0.06800000  0.06100000  1.0
  C  C135  1  0.65000000  0.03400000  0.22800000  1.0
  C  C136  1  0.13900000  0.74700000  0.27000000  1.0
  C  C137  1  0.06800000  0.74300000  0.26000000  1.0
  C  C138  1  0.03400000  0.71100000  0.09700000  1.0
  C  C139  1  0.03400000  0.77000000  0.41000000  1.0
  C  C140  1  0.06800000  0.67800000  0.93900000  1.0
  C  C141  1  0.03400000  0.65000000  0.77200000  1.0
  C  C142  1  0.86100000  0.25300000  0.27000000  1.0
  C  C143  1  0.93200000  0.25700000  0.26000000  1.0
  C  C144  1  0.96600000  0.28900000  0.09700000  1.0
  C  C145  1  0.96600000  0.23000000  0.41000000  1.0
  C  C146  1  0.93200000  0.32200000  0.93900000  1.0
  C  C147  1  0.96600000  0.35000000  0.77200000  1.0
  C  C148  1  0.24700000  0.36100000  0.27000000  1.0
  C  C149  1  0.24300000  0.43200000  0.26000000  1.0
  C  C150  1  0.21100000  0.46600000  0.09700000  1.0
  C  C151  1  0.27000000  0.46600000  0.41000000  1.0
  C  C152  1  0.17800000  0.43200000  0.93900000  1.0
  C  C153  1  0.15000000  0.46600000  0.77200000  1.0
  C  C154  1  0.75300000  0.63900000  0.27000000  1.0
  C  C155  1  0.75700000  0.56800000  0.26000000  1.0
  C  C156  1  0.78900000  0.53400000  0.09700000  1.0
  C  C157  1  0.73000000  0.53400000  0.41000000  1.0
  C  C158  1  0.82200000  0.56800000  0.93900000  1.0
  C  C159  1  0.85000000  0.53400000  0.77200000  1.0
  O  O160  1  0.17100000  0.24800000  0.11700000  1.0
  O  O161  1  0.16500000  0.25100000  0.44700000  1.0
  O  O162  1  0.82900000  0.75200000  0.11700000  1.0
  O  O163  1  0.83500000  0.74900000  0.44700000  1.0
  O  O164  1  0.25200000  0.67100000  0.11700000  1.0
  O  O165  1  0.24900000  0.66500000  0.44700000  1.0
  O  O166  1  0.74800000  0.32900000  0.11700000  1.0
  O  O167  1  0.75100000  0.33500000  0.44700000  1.0
  O  O168  1  0.32900000  0.74800000  0.88300000  1.0
  O  O169  1  0.33500000  0.75100000  0.55300000  1.0
  O  O170  1  0.67100000  0.25200000  0.88300000  1.0
  O  O171  1  0.66500000  0.24900000  0.55300000  1.0
  O  O172  1  0.24800000  0.17100000  0.88300000  1.0
  O  O173  1  0.25100000  0.16500000  0.55300000  1.0
  O  O174  1  0.75200000  0.82900000  0.88300000  1.0
  O  O175  1  0.74900000  0.83500000  0.55300000  1.0
  O  O176  1  0.32900000  0.25200000  0.88300000  1.0
  O  O177  1  0.33500000  0.24900000  0.55300000  1.0
  O  O178  1  0.67100000  0.74800000  0.88300000  1.0
  O  O179  1  0.66500000  0.75100000  0.55300000  1.0
  O  O180  1  0.24800000  0.82900000  0.88300000  1.0
  O  O181  1  0.25100000  0.83500000  0.55300000  1.0
  O  O182  1  0.75200000  0.17100000  0.88300000  1.0
  O  O183  1  0.74900000  0.16500000  0.55300000  1.0
  O  O184  1  0.17100000  0.75200000  0.11700000  1.0
  O  O185  1  0.16500000  0.74900000  0.44700000  1.0
  O  O186  1  0.82900000  0.24800000  0.11700000  1.0
  O  O187  1  0.83500000  0.25100000  0.44700000  1.0
  O  O188  1  0.25200000  0.32900000  0.11700000  1.0
  O  O189  1  0.24900000  0.33500000  0.44700000  1.0
  O  O190  1  0.74800000  0.67100000  0.11700000  1.0
  O  O191  1  0.75100000  0.66500000  0.44700000  1.0
  O  O192  1  0.28100000  0.21900000  0.28500000  1.0
  O  O193  1  0.71900000  0.78100000  0.28500000  1.0
  O  O194  1  0.28100000  0.78100000  0.28500000  1.0
  O  O195  1  0.71900000  0.21900000  0.28500000  1.0
  O  O196  1  0.21900000  0.71900000  0.71500000  1.0
  O  O197  1  0.78100000  0.28100000  0.71500000  1.0
  O  O198  1  0.21900000  0.28100000  0.71500000  1.0
  O  O199  1  0.78100000  0.71900000  0.71500000  1.0
