# generated using pymatgen
data_MnH4C8O5
_symmetry_space_group_name_H-M   'P 1'
_cell_length_a   18.25070000
_cell_length_b   18.16510000
_cell_length_c   18.85180000
_cell_angle_alpha   90.00000000
_cell_angle_beta   90.00000000
_cell_angle_gamma   90.00000000
_symmetry_Int_Tables_number   1
_chemical_formula_structural   MnH4C8O5
_chemical_formula_sum   'Mn16 H64 C128 O80'
_cell_volume   6249.85789867
_cell_formula_units_Z   16
loop_
 _symmetry_equiv_pos_site_id
 _symmetry_equiv_pos_as_xyz
  1  'x, y, z'
loop_
 _atom_site_type_symbol
 _atom_site_label
 _atom_site_symmetry_multiplicity
 _atom_site_fract_x
 _atom_site_fract_y
 _atom_site_fract_z
 _atom_site_occupancy
  Mn  Mn0  1  0.22371000  0.69334000  0.08938000  1.0
  Mn  Mn1  1  0.22053000  0.49140000  0.09417000  1.0
  Mn  Mn2  1  0.27629000  0.30666000  0.58938000  1.0
  Mn  Mn3  1  0.27947000  0.50860000  0.59417000  1.0
  Mn  Mn4  1  0.77629000  0.19334000  0.41062000  1.0
  Mn  Mn5  1  0.77947000  0.99140000  0.40583000  1.0
  Mn  Mn6  1  0.72371000  0.80666000  0.91062000  1.0
  Mn  Mn7  1  0.72053000  0.00860000  0.90583000  1.0
  Mn  Mn8  1  0.77629000  0.30666000  0.91062000  1.0
  Mn  Mn9  1  0.77947000  0.50860000  0.90583000  1.0
  Mn  Mn10  1  0.72371000  0.69334000  0.41062000  1.0
  Mn  Mn11  1  0.72053000  0.49140000  0.40583000  1.0
  Mn  Mn12  1  0.22371000  0.80666000  0.58938000  1.0
  Mn  Mn13  1  0.22053000  0.00860000  0.59417000  1.0
  Mn  Mn14  1  0.27629000  0.19334000  0.08938000  1.0
  Mn  Mn15  1  0.27947000  0.99140000  0.09417000  1.0
  H  H16  1  0.31560000  0.24760000  0.25660000  1.0
  H  H17  1  0.37580000  0.71370000  0.18010000  1.0
  H  H18  1  0.19310000  0.45650000  0.24360000  1.0
  H  H19  1  0.19300000  0.49690000  0.36020000  1.0
  H  H20  1  0.30580000  0.31720000  0.41730000  1.0
  H  H21  1  0.42400000  0.47950000  0.21620000  1.0
  H  H22  1  0.53170000  0.48350000  0.27960000  1.0
  H  H23  1  0.53170000  0.70350000  0.26810000  1.0
  H  H24  1  0.18440000  0.75240000  0.75660000  1.0
  H  H25  1  0.12420000  0.28630000  0.68010000  1.0
  H  H26  1  0.30690000  0.54350000  0.74360000  1.0
  H  H27  1  0.30700000  0.50310000  0.86020000  1.0
  H  H28  1  0.19420000  0.68280000  0.91730000  1.0
  H  H29  1  0.07600000  0.52050000  0.71620000  1.0
  H  H30  1  0.96830000  0.51650000  0.77960000  1.0
  H  H31  1  0.96830000  0.29650000  0.76810000  1.0
  H  H32  1  0.68440000  0.74760000  0.24340000  1.0
  H  H33  1  0.62420000  0.21370000  0.31990000  1.0
  H  H34  1  0.80690000  0.95650000  0.25640000  1.0
  H  H35  1  0.80700000  0.99690000  0.13980000  1.0
  H  H36  1  0.69420000  0.81720000  0.08270000  1.0
  H  H37  1  0.57600000  0.97950000  0.28380000  1.0
  H  H38  1  0.46830000  0.98350000  0.22040000  1.0
  H  H39  1  0.46830000  0.20350000  0.23190000  1.0
  H  H40  1  0.81560000  0.25240000  0.74340000  1.0
  H  H41  1  0.87580000  0.78630000  0.81990000  1.0
  H  H42  1  0.69310000  0.04350000  0.75640000  1.0
  H  H43  1  0.69300000  0.00310000  0.63980000  1.0
  H  H44  1  0.80580000  0.18280000  0.58270000  1.0
  H  H45  1  0.92400000  0.02050000  0.78380000  1.0
  H  H46  1  0.03170000  0.01650000  0.72040000  1.0
  H  H47  1  0.03170000  0.79650000  0.73190000  1.0
  H  H48  1  0.68440000  0.75240000  0.74340000  1.0
  H  H49  1  0.62420000  0.28630000  0.81990000  1.0
  H  H50  1  0.80690000  0.54350000  0.75640000  1.0
  H  H51  1  0.80700000  0.50310000  0.63980000  1.0
  H  H52  1  0.69420000  0.68280000  0.58270000  1.0
  H  H53  1  0.57600000  0.52050000  0.78380000  1.0
  H  H54  1  0.46830000  0.51650000  0.72040000  1.0
  H  H55  1  0.46830000  0.29650000  0.73190000  1.0
  H  H56  1  0.81560000  0.24760000  0.24340000  1.0
  H  H57  1  0.87580000  0.71370000  0.31990000  1.0
  H  H58  1  0.69310000  0.45650000  0.25640000  1.0
  H  H59  1  0.69300000  0.49690000  0.13980000  1.0
  H  H60  1  0.80580000  0.31720000  0.08270000  1.0
  H  H61  1  0.92400000  0.47950000  0.28380000  1.0
  H  H62  1  0.03170000  0.48350000  0.22040000  1.0
  H  H63  1  0.03170000  0.70350000  0.23190000  1.0
  H  H64  1  0.31560000  0.25240000  0.75660000  1.0
  H  H65  1  0.37580000  0.78630000  0.68010000  1.0
  H  H66  1  0.19310000  0.04350000  0.74360000  1.0
  H  H67  1  0.19300000  0.00310000  0.86020000  1.0
  H  H68  1  0.30580000  0.18280000  0.91730000  1.0
  H  H69  1  0.42400000  0.02050000  0.71620000  1.0
  H  H70  1  0.53170000  0.01650000  0.77960000  1.0
  H  H71  1  0.53170000  0.79650000  0.76810000  1.0
  H  H72  1  0.18440000  0.74760000  0.25660000  1.0
  H  H73  1  0.12420000  0.21370000  0.18010000  1.0
  H  H74  1  0.30690000  0.95650000  0.24360000  1.0
  H  H75  1  0.30700000  0.99690000  0.36020000  1.0
  H  H76  1  0.19420000  0.81720000  0.41730000  1.0
  H  H77  1  0.07600000  0.97950000  0.21620000  1.0
  H  H78  1  0.96830000  0.98350000  0.27960000  1.0
  H  H79  1  0.96830000  0.20350000  0.26810000  1.0
  C  C80  1  0.25382000  0.34154000  0.18274000  1.0
  C  C81  1  0.25136000  0.36426000  0.25903000  1.0
  C  C82  1  0.21670000  0.42873000  0.27816000  1.0
  C  C83  1  0.21630000  0.45305000  0.34828000  1.0
  C  C84  1  0.25070000  0.41174000  0.39994000  1.0
  C  C85  1  0.28366000  0.34554000  0.38221000  1.0
  C  C86  1  0.28382000  0.32117000  0.31219000  1.0
  C  C87  1  0.25542000  0.44009000  0.47402000  1.0
  C  C88  1  0.34118000  0.58561000  0.16266000  1.0
  C  C89  1  0.41220000  0.58928000  0.20365000  1.0
  C  C90  1  0.44540000  0.52470000  0.22660000  1.0
  C  C91  1  0.50990000  0.52706000  0.26460000  1.0
  C  C92  1  0.54238000  0.59439000  0.28078000  1.0
  C  C93  1  0.51002000  0.65840000  0.25786000  1.0
  C  C94  1  0.44510000  0.65631000  0.21948000  1.0
  C  C95  1  0.61145000  0.59602000  0.32482000  1.0
  C  C96  1  0.24618000  0.65846000  0.68274000  1.0
  C  C97  1  0.24864000  0.63574000  0.75903000  1.0
  C  C98  1  0.28330000  0.57127000  0.77816000  1.0
  C  C99  1  0.28370000  0.54695000  0.84828000  1.0
  C  C100  1  0.24930000  0.58826000  0.89994000  1.0
  C  C101  1  0.21634000  0.65446000  0.88221000  1.0
  C  C102  1  0.21618000  0.67883000  0.81219000  1.0
  C  C103  1  0.24458000  0.55991000  0.97402000  1.0
  C  C104  1  0.15882000  0.41439000  0.66266000  1.0
  C  C105  1  0.08780000  0.41072000  0.70365000  1.0
  C  C106  1  0.05460000  0.47530000  0.72660000  1.0
  C  C107  1  0.99010000  0.47294000  0.76460000  1.0
  C  C108  1  0.95762000  0.40561000  0.78078000  1.0
  C  C109  1  0.98998000  0.34160000  0.75786000  1.0
  C  C110  1  0.05490000  0.34369000  0.71948000  1.0
  C  C111  1  0.88855000  0.40398000  0.82482000  1.0
  C  C112  1  0.74618000  0.84154000  0.31726000  1.0
  C  C113  1  0.74864000  0.86426000  0.24097000  1.0
  C  C114  1  0.78330000  0.92873000  0.22184000  1.0
  C  C115  1  0.78370000  0.95305000  0.15172000  1.0
  C  C116  1  0.74930000  0.91174000  0.10006000  1.0
  C  C117  1  0.71634000  0.84554000  0.11779000  1.0
  C  C118  1  0.71618000  0.82117000  0.18781000  1.0
  C  C119  1  0.74458000  0.94009000  0.02598000  1.0
  C  C120  1  0.65882000  0.08561000  0.33734000  1.0
  C  C121  1  0.58780000  0.08928000  0.29635000  1.0
  C  C122  1  0.55460000  0.02470000  0.27340000  1.0
  C  C123  1  0.49010000  0.02706000  0.23540000  1.0
  C  C124  1  0.45762000  0.09439000  0.21922000  1.0
  C  C125  1  0.48998000  0.15840000  0.24214000  1.0
  C  C126  1  0.55490000  0.15631000  0.28052000  1.0
  C  C127  1  0.38855000  0.09602000  0.17518000  1.0
  C  C128  1  0.75382000  0.15846000  0.81726000  1.0
  C  C129  1  0.75136000  0.13574000  0.74097000  1.0
  C  C130  1  0.71670000  0.07127000  0.72184000  1.0
  C  C131  1  0.71630000  0.04695000  0.65172000  1.0
  C  C132  1  0.75070000  0.08826000  0.60006000  1.0
  C  C133  1  0.78366000  0.15446000  0.61779000  1.0
  C  C134  1  0.78382000  0.17883000  0.68781000  1.0
  C  C135  1  0.75542000  0.05991000  0.52598000  1.0
  C  C136  1  0.84118000  0.91439000  0.83734000  1.0
  C  C137  1  0.91220000  0.91072000  0.79635000  1.0
  C  C138  1  0.94540000  0.97530000  0.77340000  1.0
  C  C139  1  0.00990000  0.97294000  0.73540000  1.0
  C  C140  1  0.04238000  0.90561000  0.71922000  1.0
  C  C141  1  0.01002000  0.84160000  0.74214000  1.0
  C  C142  1  0.94510000  0.84369000  0.78052000  1.0
  C  C143  1  0.11145000  0.90398000  0.67518000  1.0
  C  C144  1  0.74618000  0.65846000  0.81726000  1.0
  C  C145  1  0.74864000  0.63574000  0.74097000  1.0
  C  C146  1  0.78330000  0.57127000  0.72184000  1.0
  C  C147  1  0.78370000  0.54695000  0.65172000  1.0
  C  C148  1  0.74930000  0.58826000  0.60006000  1.0
  C  C149  1  0.71634000  0.65446000  0.61779000  1.0
  C  C150  1  0.71618000  0.67883000  0.68781000  1.0
  C  C151  1  0.74458000  0.55991000  0.52598000  1.0
  C  C152  1  0.65882000  0.41439000  0.83734000  1.0
  C  C153  1  0.58780000  0.41072000  0.79635000  1.0
  C  C154  1  0.55460000  0.47530000  0.77340000  1.0
  C  C155  1  0.49010000  0.47294000  0.73540000  1.0
  C  C156  1  0.45762000  0.40561000  0.71922000  1.0
  C  C157  1  0.48998000  0.34160000  0.74214000  1.0
  C  C158  1  0.55490000  0.34369000  0.78052000  1.0
  C  C159  1  0.38855000  0.40398000  0.67518000  1.0
  C  C160  1  0.75382000  0.34154000  0.31726000  1.0
  C  C161  1  0.75136000  0.36426000  0.24097000  1.0
  C  C162  1  0.71670000  0.42873000  0.22184000  1.0
  C  C163  1  0.71630000  0.45305000  0.15172000  1.0
  C  C164  1  0.75070000  0.41174000  0.10006000  1.0
  C  C165  1  0.78366000  0.34554000  0.11779000  1.0
  C  C166  1  0.78382000  0.32117000  0.18781000  1.0
  C  C167  1  0.75542000  0.44009000  0.02598000  1.0
  C  C168  1  0.84118000  0.58561000  0.33734000  1.0
  C  C169  1  0.91220000  0.58928000  0.29635000  1.0
  C  C170  1  0.94540000  0.52470000  0.27340000  1.0
  C  C171  1  0.00990000  0.52706000  0.23540000  1.0
  C  C172  1  0.04238000  0.59439000  0.21922000  1.0
  C  C173  1  0.01002000  0.65840000  0.24214000  1.0
  C  C174  1  0.94510000  0.65631000  0.28052000  1.0
  C  C175  1  0.11145000  0.59602000  0.17518000  1.0
  C  C176  1  0.25382000  0.15846000  0.68274000  1.0
  C  C177  1  0.25136000  0.13574000  0.75903000  1.0
  C  C178  1  0.21670000  0.07127000  0.77816000  1.0
  C  C179  1  0.21630000  0.04695000  0.84828000  1.0
  C  C180  1  0.25070000  0.08826000  0.89994000  1.0
  C  C181  1  0.28366000  0.15446000  0.88221000  1.0
  C  C182  1  0.28382000  0.17883000  0.81219000  1.0
  C  C183  1  0.25542000  0.05991000  0.97402000  1.0
  C  C184  1  0.34118000  0.91439000  0.66266000  1.0
  C  C185  1  0.41220000  0.91072000  0.70365000  1.0
  C  C186  1  0.44540000  0.97530000  0.72660000  1.0
  C  C187  1  0.50990000  0.97294000  0.76460000  1.0
  C  C188  1  0.54238000  0.90561000  0.78078000  1.0
  C  C189  1  0.51002000  0.84160000  0.75786000  1.0
  C  C190  1  0.44510000  0.84369000  0.71948000  1.0
  C  C191  1  0.61145000  0.90398000  0.82482000  1.0
  C  C192  1  0.24618000  0.84154000  0.18274000  1.0
  C  C193  1  0.24864000  0.86426000  0.25903000  1.0
  C  C194  1  0.28330000  0.92873000  0.27816000  1.0
  C  C195  1  0.28370000  0.95305000  0.34828000  1.0
  C  C196  1  0.24930000  0.91174000  0.39994000  1.0
  C  C197  1  0.21634000  0.84554000  0.38221000  1.0
  C  C198  1  0.21618000  0.82117000  0.31219000  1.0
  C  C199  1  0.24458000  0.94009000  0.47402000  1.0
  C  C200  1  0.15882000  0.08561000  0.16266000  1.0
  C  C201  1  0.08780000  0.08928000  0.20365000  1.0
  C  C202  1  0.05460000  0.02470000  0.22660000  1.0
  C  C203  1  0.99010000  0.02706000  0.26460000  1.0
  C  C204  1  0.95762000  0.09439000  0.28078000  1.0
  C  C205  1  0.98998000  0.15840000  0.25786000  1.0
  C  C206  1  0.05490000  0.15631000  0.21948000  1.0
  C  C207  1  0.88855000  0.09602000  0.32482000  1.0
  O  O208  1  0.23449000  0.38399000  0.13491000  1.0
  O  O209  1  0.31773000  0.52377000  0.14579000  1.0
  O  O210  1  0.22958000  0.50278000  0.48788000  1.0
  O  O211  1  0.64147000  0.53542000  0.33741000  1.0
  O  O212  1  0.28815000  0.40360000  0.52109000  1.0
  O  O213  1  0.63283000  0.65704000  0.34648000  1.0
  O  O214  1  0.27644000  0.27736000  0.17102000  1.0
  O  O215  1  0.31121000  0.64584000  0.14813000  1.0
  O  O216  1  0.31620000  0.25589000  0.29935000  1.0
  O  O217  1  0.41470000  0.72130000  0.20040000  1.0
  O  O218  1  0.26551000  0.61601000  0.63491000  1.0
  O  O219  1  0.18227000  0.47623000  0.64579000  1.0
  O  O220  1  0.27042000  0.49722000  0.98788000  1.0
  O  O221  1  0.85853000  0.46458000  0.83741000  1.0
  O  O222  1  0.21185000  0.59640000  0.02109000  1.0
  O  O223  1  0.86717000  0.34296000  0.84648000  1.0
  O  O224  1  0.22356000  0.72264000  0.67102000  1.0
  O  O225  1  0.18879000  0.35416000  0.64813000  1.0
  O  O226  1  0.18380000  0.74411000  0.79935000  1.0
  O  O227  1  0.08530000  0.27870000  0.70040000  1.0
  O  O228  1  0.76551000  0.88399000  0.36509000  1.0
  O  O229  1  0.68227000  0.02377000  0.35421000  1.0
  O  O230  1  0.77042000  0.00278000  0.01212000  1.0
  O  O231  1  0.35853000  0.03542000  0.16259000  1.0
  O  O232  1  0.71185000  0.90360000  0.97891000  1.0
  O  O233  1  0.36717000  0.15704000  0.15352000  1.0
  O  O234  1  0.72356000  0.77736000  0.32898000  1.0
  O  O235  1  0.68879000  0.14584000  0.35187000  1.0
  O  O236  1  0.68380000  0.75589000  0.20065000  1.0
  O  O237  1  0.58530000  0.22130000  0.29960000  1.0
  O  O238  1  0.73449000  0.11601000  0.86509000  1.0
  O  O239  1  0.81773000  0.97623000  0.85421000  1.0
  O  O240  1  0.72958000  0.99722000  0.51212000  1.0
  O  O241  1  0.14147000  0.96458000  0.66259000  1.0
  O  O242  1  0.78815000  0.09640000  0.47891000  1.0
  O  O243  1  0.13283000  0.84296000  0.65352000  1.0
  O  O244  1  0.77644000  0.22264000  0.82898000  1.0
  O  O245  1  0.81121000  0.85416000  0.85187000  1.0
  O  O246  1  0.81620000  0.24411000  0.70065000  1.0
  O  O247  1  0.91470000  0.77870000  0.79960000  1.0
  O  O248  1  0.76551000  0.61601000  0.86509000  1.0
  O  O249  1  0.68227000  0.47623000  0.85421000  1.0
  O  O250  1  0.77042000  0.49722000  0.51212000  1.0
  O  O251  1  0.35853000  0.46458000  0.66259000  1.0
  O  O252  1  0.71185000  0.59640000  0.47891000  1.0
  O  O253  1  0.36717000  0.34296000  0.65352000  1.0
  O  O254  1  0.72356000  0.72264000  0.82898000  1.0
  O  O255  1  0.68879000  0.35416000  0.85187000  1.0
  O  O256  1  0.68380000  0.74411000  0.70065000  1.0
  O  O257  1  0.58530000  0.27870000  0.79960000  1.0
  O  O258  1  0.73449000  0.38399000  0.36509000  1.0
  O  O259  1  0.81773000  0.52377000  0.35421000  1.0
  O  O260  1  0.72958000  0.50278000  0.01212000  1.0
  O  O261  1  0.14147000  0.53542000  0.16259000  1.0
  O  O262  1  0.78815000  0.40360000  0.97891000  1.0
  O  O263  1  0.13283000  0.65704000  0.15352000  1.0
  O  O264  1  0.77644000  0.27736000  0.32898000  1.0
  O  O265  1  0.81121000  0.64584000  0.35187000  1.0
  O  O266  1  0.81620000  0.25589000  0.20065000  1.0
  O  O267  1  0.91470000  0.72130000  0.29960000  1.0
  O  O268  1  0.23449000  0.11601000  0.63491000  1.0
  O  O269  1  0.31773000  0.97623000  0.64579000  1.0
  O  O270  1  0.22958000  0.99722000  0.98788000  1.0
  O  O271  1  0.64147000  0.96458000  0.83741000  1.0
  O  O272  1  0.28815000  0.09640000  0.02109000  1.0
  O  O273  1  0.63283000  0.84296000  0.84648000  1.0
  O  O274  1  0.27644000  0.22264000  0.67102000  1.0
  O  O275  1  0.31121000  0.85416000  0.64813000  1.0
  O  O276  1  0.31620000  0.24411000  0.79935000  1.0
  O  O277  1  0.41470000  0.77870000  0.70040000  1.0
  O  O278  1  0.26551000  0.88399000  0.13491000  1.0
  O  O279  1  0.18227000  0.02377000  0.14579000  1.0
  O  O280  1  0.27042000  0.00278000  0.48788000  1.0
  O  O281  1  0.85853000  0.03542000  0.33741000  1.0
  O  O282  1  0.21185000  0.90360000  0.52109000  1.0
  O  O283  1  0.86717000  0.15704000  0.34648000  1.0
  O  O284  1  0.22356000  0.77736000  0.17102000  1.0
  O  O285  1  0.18879000  0.14584000  0.14813000  1.0
  O  O286  1  0.18380000  0.75589000  0.29935000  1.0
  O  O287  1  0.08530000  0.22130000  0.20040000  1.0
