# generated using pymatgen
data_UH2(C5O4)2
_symmetry_space_group_name_H-M   'P 1'
_cell_length_a   10.47720000
_cell_length_b   15.67530000
_cell_length_c   12.77080000
_cell_angle_alpha   90.00000000
_cell_angle_beta   102.04700000
_cell_angle_gamma   90.00000000
_symmetry_Int_Tables_number   1
_chemical_formula_structural   UH2(C5O4)2
_chemical_formula_sum   'U4 H8 C40 O32'
_cell_volume   2051.19862305
_cell_formula_units_Z   4
loop_
 _symmetry_equiv_pos_site_id
 _symmetry_equiv_pos_as_xyz
  1  'x, y, z'
loop_
 _atom_site_type_symbol
 _atom_site_label
 _atom_site_symmetry_multiplicity
 _atom_site_fract_x
 _atom_site_fract_y
 _atom_site_fract_z
 _atom_site_occupancy
  U  U0  1  0.00000000  0.47175000  0.25000000  1.0
  U  U1  1  0.50000000  0.97175000  0.25000000  1.0
  U  U2  1  0.00000000  0.52825000  0.75000000  1.0
  U  U3  1  0.50000000  0.02825000  0.75000000  1.0
  H  H4  1  0.75394000  0.73803000  0.18272000  1.0
  H  H5  1  0.25394000  0.23803000  0.18272000  1.0
  H  H6  1  0.24606000  0.73803000  0.31728000  1.0
  H  H7  1  0.74606000  0.23803000  0.31728000  1.0
  H  H8  1  0.24606000  0.26197000  0.81728000  1.0
  H  H9  1  0.74606000  0.76197000  0.81728000  1.0
  H  H10  1  0.75394000  0.26197000  0.68272000  1.0
  H  H11  1  0.25394000  0.76197000  0.68272000  1.0
  C  C12  1  0.87750000  0.60882000  0.12340000  1.0
  C  C13  1  0.69400000  0.81369000  0.05260000  1.0
  C  C14  1  0.81020000  0.68004000  0.05720000  1.0
  C  C15  1  0.75280000  0.74326000  0.10760000  1.0
  C  C16  1  0.63170000  0.87610000  0.11560000  1.0
  C  C17  1  0.37750000  0.10882000  0.12340000  1.0
  C  C18  1  0.19400000  0.31369000  0.05260000  1.0
  C  C19  1  0.31020000  0.18004000  0.05720000  1.0
  C  C20  1  0.25280000  0.24326000  0.10760000  1.0
  C  C21  1  0.13170000  0.37610000  0.11560000  1.0
  C  C22  1  0.12250000  0.60882000  0.37660000  1.0
  C  C23  1  0.30600000  0.81369000  0.44740000  1.0
  C  C24  1  0.18980000  0.68004000  0.44280000  1.0
  C  C25  1  0.24720000  0.74326000  0.39240000  1.0
  C  C26  1  0.36830000  0.87610000  0.38440000  1.0
  C  C27  1  0.62250000  0.10882000  0.37660000  1.0
  C  C28  1  0.80600000  0.31369000  0.44740000  1.0
  C  C29  1  0.68980000  0.18004000  0.44280000  1.0
  C  C30  1  0.74720000  0.24326000  0.39240000  1.0
  C  C31  1  0.86830000  0.37610000  0.38440000  1.0
  C  C32  1  0.12250000  0.39118000  0.87660000  1.0
  C  C33  1  0.30600000  0.18631000  0.94740000  1.0
  C  C34  1  0.18980000  0.31996000  0.94280000  1.0
  C  C35  1  0.24720000  0.25674000  0.89240000  1.0
  C  C36  1  0.36830000  0.12390000  0.88440000  1.0
  C  C37  1  0.62250000  0.89118000  0.87660000  1.0
  C  C38  1  0.80600000  0.68631000  0.94740000  1.0
  C  C39  1  0.68980000  0.81996000  0.94280000  1.0
  C  C40  1  0.74720000  0.75674000  0.89240000  1.0
  C  C41  1  0.86830000  0.62390000  0.88440000  1.0
  C  C42  1  0.87750000  0.39118000  0.62340000  1.0
  C  C43  1  0.69400000  0.18631000  0.55260000  1.0
  C  C44  1  0.81020000  0.31996000  0.55720000  1.0
  C  C45  1  0.75280000  0.25674000  0.60760000  1.0
  C  C46  1  0.63170000  0.12390000  0.61560000  1.0
  C  C47  1  0.37750000  0.89118000  0.62340000  1.0
  C  C48  1  0.19400000  0.68631000  0.55260000  1.0
  C  C49  1  0.31020000  0.81996000  0.55720000  1.0
  C  C50  1  0.25280000  0.75674000  0.60760000  1.0
  C  C51  1  0.13170000  0.62390000  0.61560000  1.0
  O  O52  1  0.85590000  0.59646000  0.21667000  1.0
  O  O53  1  0.53380000  0.84912000  0.14790000  1.0
  O  O54  1  0.95520000  0.56145000  0.08725000  1.0
  O  O55  1  0.67590000  0.94826000  0.14020000  1.0
  O  O56  1  0.35590000  0.09646000  0.21667000  1.0
  O  O57  1  0.03380000  0.34912000  0.14790000  1.0
  O  O58  1  0.45520000  0.06145000  0.08725000  1.0
  O  O59  1  0.17590000  0.44826000  0.14020000  1.0
  O  O60  1  0.14410000  0.59646000  0.28333000  1.0
  O  O61  1  0.46620000  0.84912000  0.35210000  1.0
  O  O62  1  0.04480000  0.56145000  0.41275000  1.0
  O  O63  1  0.32410000  0.94826000  0.35980000  1.0
  O  O64  1  0.64410000  0.09646000  0.28333000  1.0
  O  O65  1  0.96620000  0.34912000  0.35210000  1.0
  O  O66  1  0.54480000  0.06145000  0.41275000  1.0
  O  O67  1  0.82410000  0.44826000  0.35980000  1.0
  O  O68  1  0.14410000  0.40354000  0.78333000  1.0
  O  O69  1  0.46620000  0.15088000  0.85210000  1.0
  O  O70  1  0.04480000  0.43855000  0.91275000  1.0
  O  O71  1  0.32410000  0.05174000  0.85980000  1.0
  O  O72  1  0.64410000  0.90354000  0.78333000  1.0
  O  O73  1  0.96620000  0.65088000  0.85210000  1.0
  O  O74  1  0.54480000  0.93855000  0.91275000  1.0
  O  O75  1  0.82410000  0.55174000  0.85980000  1.0
  O  O76  1  0.85590000  0.40354000  0.71667000  1.0
  O  O77  1  0.53380000  0.15088000  0.64790000  1.0
  O  O78  1  0.95520000  0.43855000  0.58725000  1.0
  O  O79  1  0.67590000  0.05174000  0.64020000  1.0
  O  O80  1  0.35590000  0.90354000  0.71667000  1.0
  O  O81  1  0.03380000  0.65088000  0.64790000  1.0
  O  O82  1  0.45520000  0.93855000  0.58725000  1.0
  O  O83  1  0.17590000  0.55174000  0.64020000  1.0
