# generated using pymatgen
data_VH4C8O5
_symmetry_space_group_name_H-M   'P 1'
_cell_length_a   14.44470000
_cell_length_b   15.66090000
_cell_length_c   20.45630000
_cell_angle_alpha   90.00000000
_cell_angle_beta   90.00000000
_cell_angle_gamma   90.00000000
_symmetry_Int_Tables_number   1
_chemical_formula_structural   VH4C8O5
_chemical_formula_sum   'V12 H48 C96 O60'
_cell_volume   4627.56286272
_cell_formula_units_Z   12
loop_
 _symmetry_equiv_pos_site_id
 _symmetry_equiv_pos_as_xyz
  1  'x, y, z'
loop_
 _atom_site_type_symbol
 _atom_site_label
 _atom_site_symmetry_multiplicity
 _atom_site_fract_x
 _atom_site_fract_y
 _atom_site_fract_z
 _atom_site_occupancy
  V  V0  1  0.23600000  0.74200000  0.27950000  1.0
  V  V1  1  0.73000000  0.24600000  0.39550000  1.0
  V  V2  1  0.23500000  0.74400000  0.43200000  1.0
  V  V3  1  0.76400000  0.24200000  0.72050000  1.0
  V  V4  1  0.27000000  0.74600000  0.60450000  1.0
  V  V5  1  0.76500000  0.24400000  0.56800000  1.0
  V  V6  1  0.26400000  0.74200000  0.77950000  1.0
  V  V7  1  0.77000000  0.24600000  0.89550000  1.0
  V  V8  1  0.26500000  0.74400000  0.93200000  1.0
  V  V9  1  0.73600000  0.24200000  0.22050000  1.0
  V  V10  1  0.23000000  0.74600000  0.10450000  1.0
  V  V11  1  0.73500000  0.24400000  0.06800000  1.0
  H  H12  1  0.43332000  0.56632000  0.60131000  1.0
  H  H13  1  0.55109000  0.44909000  0.61064000  1.0
  H  H14  1  0.44890000  0.55092000  0.38936000  1.0
  H  H15  1  0.56669000  0.43367000  0.39870000  1.0
  H  H16  1  0.04588000  0.54624000  0.44123000  1.0
  H  H17  1  0.92929000  0.42892000  0.42659000  1.0
  H  H18  1  0.07072000  0.57109000  0.23042000  1.0
  H  H19  1  0.95417000  0.45380000  0.21575000  1.0
  H  H20  1  0.44070000  0.55902000  0.27020000  1.0
  H  H21  1  0.55904000  0.44142000  0.27026000  1.0
  H  H22  1  0.44101000  0.55852000  0.05771000  1.0
  H  H23  1  0.55920000  0.44108000  0.05774000  1.0
  H  H24  1  0.56668000  0.06632000  0.39869000  1.0
  H  H25  1  0.44891000  0.94909000  0.38936000  1.0
  H  H26  1  0.55110000  0.05092000  0.61064000  1.0
  H  H27  1  0.43331000  0.93367000  0.60130000  1.0
  H  H28  1  0.95412000  0.04624000  0.55877000  1.0
  H  H29  1  0.07071000  0.92892000  0.57341000  1.0
  H  H30  1  0.92928000  0.07109000  0.76958000  1.0
  H  H31  1  0.04583000  0.95380000  0.78425000  1.0
  H  H32  1  0.55930000  0.05902000  0.72980000  1.0
  H  H33  1  0.44096000  0.94142000  0.72974000  1.0
  H  H34  1  0.55899000  0.05852000  0.94229000  1.0
  H  H35  1  0.44080000  0.94108000  0.94226000  1.0
  H  H36  1  0.06668000  0.56632000  0.10131000  1.0
  H  H37  1  0.94891000  0.44909000  0.11064000  1.0
  H  H38  1  0.05110000  0.55092000  0.88936000  1.0
  H  H39  1  0.93331000  0.43367000  0.89870000  1.0
  H  H40  1  0.45412000  0.54624000  0.94123000  1.0
  H  H41  1  0.57071000  0.42892000  0.92659000  1.0
  H  H42  1  0.42928000  0.57109000  0.73042000  1.0
  H  H43  1  0.54583000  0.45380000  0.71575000  1.0
  H  H44  1  0.05930000  0.55902000  0.77020000  1.0
  H  H45  1  0.94096000  0.44142000  0.77026000  1.0
  H  H46  1  0.05899000  0.55852000  0.55771000  1.0
  H  H47  1  0.94080000  0.44108000  0.55774000  1.0
  H  H48  1  0.93332000  0.06632000  0.89869000  1.0
  H  H49  1  0.05109000  0.94909000  0.88936000  1.0
  H  H50  1  0.94890000  0.05092000  0.11064000  1.0
  H  H51  1  0.06669000  0.93367000  0.10130000  1.0
  H  H52  1  0.54588000  0.04624000  0.05877000  1.0
  H  H53  1  0.42929000  0.92892000  0.07341000  1.0
  H  H54  1  0.57072000  0.07109000  0.26958000  1.0
  H  H55  1  0.45417000  0.95380000  0.28425000  1.0
  H  H56  1  0.94070000  0.05902000  0.22980000  1.0
  H  H57  1  0.05904000  0.94142000  0.22974000  1.0
  H  H58  1  0.94101000  0.05852000  0.44229000  1.0
  H  H59  1  0.05920000  0.94108000  0.44226000  1.0
  C  C60  1  0.43570000  0.56400000  0.49490000  1.0
  C  C61  1  0.46360000  0.53620000  0.55530000  1.0
  C  C62  1  0.52790000  0.47220000  0.56040000  1.0
  C  C63  1  0.47210000  0.52780000  0.43960000  1.0
  C  C64  1  0.53640000  0.46380000  0.44470000  1.0
  C  C65  1  0.56430000  0.43600000  0.50510000  1.0
  C  C66  1  0.36530000  0.63400000  0.48940000  1.0
  C  C67  1  0.63470000  0.36600000  0.51060000  1.0
  C  C68  1  0.06360000  0.56400000  0.33600000  1.0
  C  C69  1  0.02490000  0.52510000  0.39000000  1.0
  C  C70  1  0.96130000  0.46110000  0.38200000  1.0
  C  C71  1  0.03870000  0.53890000  0.27500000  1.0
  C  C72  1  0.97510000  0.47490000  0.26700000  1.0
  C  C73  1  0.93640000  0.43600000  0.32000000  1.0
  C  C74  1  0.13320000  0.63410000  0.34600000  1.0
  C  C75  1  0.86680000  0.36590000  0.31100000  1.0
  C  C76  1  0.43540000  0.56400000  0.16400000  1.0
  C  C77  1  0.46760000  0.53220000  0.22200000  1.0
  C  C78  1  0.53220000  0.46810000  0.22200000  1.0
  C  C79  1  0.46780000  0.53190000  0.10600000  1.0
  C  C80  1  0.53240000  0.46780000  0.10600000  1.0
  C  C81  1  0.56460000  0.43600000  0.16400000  1.0
  C  C82  1  0.36460000  0.63410000  0.16400000  1.0
  C  C83  1  0.63540000  0.36590000  0.16400000  1.0
  C  C84  1  0.56430000  0.06400000  0.50510000  1.0
  C  C85  1  0.53640000  0.03620000  0.44470000  1.0
  C  C86  1  0.47210000  0.97220000  0.43960000  1.0
  C  C87  1  0.52790000  0.02780000  0.56040000  1.0
  C  C88  1  0.46360000  0.96380000  0.55530000  1.0
  C  C89  1  0.43570000  0.93600000  0.49490000  1.0
  C  C90  1  0.63470000  0.13400000  0.51060000  1.0
  C  C91  1  0.36530000  0.86600000  0.48940000  1.0
  C  C92  1  0.93640000  0.06400000  0.66400000  1.0
  C  C93  1  0.97510000  0.02510000  0.61000000  1.0
  C  C94  1  0.03870000  0.96110000  0.61800000  1.0
  C  C95  1  0.96130000  0.03890000  0.72500000  1.0
  C  C96  1  0.02490000  0.97490000  0.73300000  1.0
  C  C97  1  0.06360000  0.93600000  0.68000000  1.0
  C  C98  1  0.86680000  0.13410000  0.65400000  1.0
  C  C99  1  0.13320000  0.86590000  0.68900000  1.0
  C  C100  1  0.56460000  0.06400000  0.83600000  1.0
  C  C101  1  0.53240000  0.03220000  0.77800000  1.0
  C  C102  1  0.46780000  0.96810000  0.77800000  1.0
  C  C103  1  0.53220000  0.03190000  0.89400000  1.0
  C  C104  1  0.46760000  0.96780000  0.89400000  1.0
  C  C105  1  0.43540000  0.93600000  0.83600000  1.0
  C  C106  1  0.63540000  0.13410000  0.83600000  1.0
  C  C107  1  0.36460000  0.86590000  0.83600000  1.0
  C  C108  1  0.06430000  0.56400000  0.99490000  1.0
  C  C109  1  0.03640000  0.53620000  0.05530000  1.0
  C  C110  1  0.97210000  0.47220000  0.06040000  1.0
  C  C111  1  0.02790000  0.52780000  0.93960000  1.0
  C  C112  1  0.96360000  0.46380000  0.94470000  1.0
  C  C113  1  0.93570000  0.43600000  0.00510000  1.0
  C  C114  1  0.13470000  0.63400000  0.98940000  1.0
  C  C115  1  0.86530000  0.36600000  0.01060000  1.0
  C  C116  1  0.43640000  0.56400000  0.83600000  1.0
  C  C117  1  0.47510000  0.52510000  0.89000000  1.0
  C  C118  1  0.53870000  0.46110000  0.88200000  1.0
  C  C119  1  0.46130000  0.53890000  0.77500000  1.0
  C  C120  1  0.52490000  0.47490000  0.76700000  1.0
  C  C121  1  0.56360000  0.43600000  0.82000000  1.0
  C  C122  1  0.36680000  0.63410000  0.84600000  1.0
  C  C123  1  0.63320000  0.36590000  0.81100000  1.0
  C  C124  1  0.06460000  0.56400000  0.66400000  1.0
  C  C125  1  0.03240000  0.53220000  0.72200000  1.0
  C  C126  1  0.96780000  0.46810000  0.72200000  1.0
  C  C127  1  0.03220000  0.53190000  0.60600000  1.0
  C  C128  1  0.96760000  0.46780000  0.60600000  1.0
  C  C129  1  0.93540000  0.43600000  0.66400000  1.0
  C  C130  1  0.13540000  0.63410000  0.66400000  1.0
  C  C131  1  0.86460000  0.36590000  0.66400000  1.0
  C  C132  1  0.93570000  0.06400000  0.00510000  1.0
  C  C133  1  0.96360000  0.03620000  0.94470000  1.0
  C  C134  1  0.02790000  0.97220000  0.93960000  1.0
  C  C135  1  0.97210000  0.02780000  0.06040000  1.0
  C  C136  1  0.03640000  0.96380000  0.05530000  1.0
  C  C137  1  0.06430000  0.93600000  0.99490000  1.0
  C  C138  1  0.86530000  0.13400000  0.01060000  1.0
  C  C139  1  0.13470000  0.86600000  0.98940000  1.0
  C  C140  1  0.56360000  0.06400000  0.16400000  1.0
  C  C141  1  0.52490000  0.02510000  0.11000000  1.0
  C  C142  1  0.46130000  0.96110000  0.11800000  1.0
  C  C143  1  0.53870000  0.03890000  0.22500000  1.0
  C  C144  1  0.47510000  0.97490000  0.23300000  1.0
  C  C145  1  0.43640000  0.93600000  0.18000000  1.0
  C  C146  1  0.63320000  0.13410000  0.15400000  1.0
  C  C147  1  0.36680000  0.86590000  0.18900000  1.0
  C  C148  1  0.93540000  0.06400000  0.33600000  1.0
  C  C149  1  0.96760000  0.03220000  0.27800000  1.0
  C  C150  1  0.03220000  0.96810000  0.27800000  1.0
  C  C151  1  0.96780000  0.03190000  0.39400000  1.0
  C  C152  1  0.03240000  0.96780000  0.39400000  1.0
  C  C153  1  0.06460000  0.93600000  0.33600000  1.0
  C  C154  1  0.86460000  0.13410000  0.33600000  1.0
  C  C155  1  0.13540000  0.86590000  0.33600000  1.0
  O  O156  1  0.31000000  0.72900000  0.35500000  1.0
  O  O157  1  0.76422000  0.25813000  0.46104000  1.0
  O  O158  1  0.20300000  0.75814000  0.19173000  1.0
  O  O159  1  0.33880000  0.66040000  0.43200000  1.0
  O  O160  1  0.66920000  0.33170000  0.45800000  1.0
  O  O161  1  0.33080000  0.66830000  0.54200000  1.0
  O  O162  1  0.66120000  0.33960000  0.56800000  1.0
  O  O163  1  0.16990000  0.67100000  0.29500000  1.0
  O  O164  1  0.84310000  0.34210000  0.25200000  1.0
  O  O165  1  0.15690000  0.65790000  0.40400000  1.0
  O  O166  1  0.83010000  0.32900000  0.36200000  1.0
  O  O167  1  0.33410000  0.66440000  0.10900000  1.0
  O  O168  1  0.66620000  0.33540000  0.10900000  1.0
  O  O169  1  0.33380000  0.66460000  0.21900000  1.0
  O  O170  1  0.66590000  0.33560000  0.22000000  1.0
  O  O171  1  0.69000000  0.22900000  0.64500000  1.0
  O  O172  1  0.23578000  0.75813000  0.53896000  1.0
  O  O173  1  0.79700000  0.25814000  0.80827000  1.0
  O  O174  1  0.66120000  0.16040000  0.56800000  1.0
  O  O175  1  0.33080000  0.83170000  0.54200000  1.0
  O  O176  1  0.66920000  0.16830000  0.45800000  1.0
  O  O177  1  0.33880000  0.83960000  0.43200000  1.0
  O  O178  1  0.83010000  0.17100000  0.70500000  1.0
  O  O179  1  0.15690000  0.84210000  0.74800000  1.0
  O  O180  1  0.84310000  0.15790000  0.59600000  1.0
  O  O181  1  0.16990000  0.82900000  0.63800000  1.0
  O  O182  1  0.66590000  0.16440000  0.89100000  1.0
  O  O183  1  0.33380000  0.83540000  0.89100000  1.0
  O  O184  1  0.66620000  0.16460000  0.78100000  1.0
  O  O185  1  0.33410000  0.83560000  0.78000000  1.0
  O  O186  1  0.19000000  0.72900000  0.85500000  1.0
  O  O187  1  0.73578000  0.25813000  0.96104000  1.0
  O  O188  1  0.29700000  0.75814000  0.69173000  1.0
  O  O189  1  0.16120000  0.66040000  0.93200000  1.0
  O  O190  1  0.83080000  0.33170000  0.95800000  1.0
  O  O191  1  0.16920000  0.66830000  0.04200000  1.0
  O  O192  1  0.83880000  0.33960000  0.06800000  1.0
  O  O193  1  0.33010000  0.67100000  0.79500000  1.0
  O  O194  1  0.65690000  0.34210000  0.75200000  1.0
  O  O195  1  0.34310000  0.65790000  0.90400000  1.0
  O  O196  1  0.66990000  0.32900000  0.86200000  1.0
  O  O197  1  0.16590000  0.66440000  0.60900000  1.0
  O  O198  1  0.83380000  0.33540000  0.60900000  1.0
  O  O199  1  0.16620000  0.66460000  0.71900000  1.0
  O  O200  1  0.83410000  0.33560000  0.72000000  1.0
  O  O201  1  0.81000000  0.22900000  0.14500000  1.0
  O  O202  1  0.26422000  0.75813000  0.03896000  1.0
  O  O203  1  0.70300000  0.25814000  0.30827000  1.0
  O  O204  1  0.83880000  0.16040000  0.06800000  1.0
  O  O205  1  0.16920000  0.83170000  0.04200000  1.0
  O  O206  1  0.83080000  0.16830000  0.95800000  1.0
  O  O207  1  0.16120000  0.83960000  0.93200000  1.0
  O  O208  1  0.66990000  0.17100000  0.20500000  1.0
  O  O209  1  0.34310000  0.84210000  0.24800000  1.0
  O  O210  1  0.65690000  0.15790000  0.09600000  1.0
  O  O211  1  0.33010000  0.82900000  0.13800000  1.0
  O  O212  1  0.83410000  0.16440000  0.39100000  1.0
  O  O213  1  0.16620000  0.83540000  0.39100000  1.0
  O  O214  1  0.83380000  0.16460000  0.28100000  1.0
  O  O215  1  0.16590000  0.83560000  0.28000000  1.0
