# generated using pymatgen
data_Y6H12C36N13O27
_symmetry_space_group_name_H-M   'P 1'
_cell_length_a   12.00200000
_cell_length_b   15.37200000
_cell_length_c   18.01800000
_cell_angle_alpha   90.15000000
_cell_angle_beta   96.90100000
_cell_angle_gamma   92.01300000
_symmetry_Int_Tables_number   1
_chemical_formula_structural   Y6H12C36N13O27
_chemical_formula_sum   'Y12 H24 C72 N26 O54'
_cell_volume   3298.02817073
_cell_formula_units_Z   2
loop_
 _symmetry_equiv_pos_site_id
 _symmetry_equiv_pos_as_xyz
  1  'x, y, z'
loop_
 _atom_site_type_symbol
 _atom_site_label
 _atom_site_symmetry_multiplicity
 _atom_site_fract_x
 _atom_site_fract_y
 _atom_site_fract_z
 _atom_site_occupancy
  Y  Y0  1  0.30664000  0.41735000  0.77243000  1.0
  Y  Y1  1  0.19166000  0.21279000  0.46725000  1.0
  Y  Y2  1  0.70413000  0.31185000  0.46855000  1.0
  Y  Y3  1  0.40160000  0.22809000  0.07069000  1.0
  Y  Y4  1  0.90127000  0.26527000  0.06999000  1.0
  Y  Y5  1  0.79283000  0.08837000  0.76312000  1.0
  Y  Y6  1  0.69336000  0.58265000  0.22757000  1.0
  Y  Y7  1  0.80834000  0.78721000  0.53275000  1.0
  Y  Y8  1  0.29587000  0.68815000  0.53145000  1.0
  Y  Y9  1  0.59840000  0.77191000  0.92931000  1.0
  Y  Y10  1  0.09873000  0.73473000  0.93001000  1.0
  Y  Y11  1  0.20717000  0.91163000  0.23688000  1.0
  H  H12  1  0.62540000  0.20580000  0.87730000  1.0
  H  H13  1  0.47490000  0.30690000  0.65470000  1.0
  H  H14  1  0.95800000  0.22160000  0.64850000  1.0
  H  H15  1  0.12150000  0.30520000  0.87560000  1.0
  H  H16  1  0.98850000  0.89600000  0.41200000  1.0
  H  H17  1  0.88400000  0.33920000  0.25820000  1.0
  H  H18  1  0.24620000  0.27450000  0.28040000  1.0
  H  H19  1  0.37590000  0.17210000  0.26540000  1.0
  H  H20  1  0.75060000  0.21940000  0.28890000  1.0
  H  H21  1  0.45120000  0.58530000  0.40130000  1.0
  H  H22  1  0.42420000  0.87790000  0.04350000  1.0
  H  H23  1  0.90540000  0.61310000  0.03000000  1.0
  H  H24  1  0.37460000  0.79420000  0.12270000  1.0
  H  H25  1  0.52510000  0.69310000  0.34530000  1.0
  H  H26  1  0.04200000  0.77840000  0.35150000  1.0
  H  H27  1  0.87850000  0.69480000  0.12440000  1.0
  H  H28  1  0.01150000  0.10400000  0.58800000  1.0
  H  H29  1  0.11600000  0.66080000  0.74180000  1.0
  H  H30  1  0.75380000  0.72550000  0.71960000  1.0
  H  H31  1  0.62410000  0.82790000  0.73460000  1.0
  H  H32  1  0.24940000  0.78060000  0.71110000  1.0
  H  H33  1  0.54880000  0.41470000  0.59870000  1.0
  H  H34  1  0.57580000  0.12210000  0.95650000  1.0
  H  H35  1  0.09460000  0.38690000  0.97000000  1.0
  C  C36  1  0.50050000  0.26570000  0.82380000  1.0
  C  C37  1  0.59480000  0.22340000  0.83010000  1.0
  C  C38  1  0.60890000  0.24010000  0.70470000  1.0
  C  C39  1  0.50530000  0.28500000  0.70050000  1.0
  C  C40  1  0.67460000  0.22910000  0.63860000  1.0
  C  C41  1  0.43060000  0.28550000  0.88890000  1.0
  C  C42  1  0.09820000  0.27540000  0.70540000  1.0
  C  C43  1  0.99100000  0.23660000  0.69640000  1.0
  C  C44  1  0.98530000  0.24730000  0.82340000  1.0
  C  C45  1  0.08830000  0.28780000  0.82840000  1.0
  C  C46  1  0.16930000  0.28600000  0.64350000  1.0
  C  C47  1  0.92130000  0.22180000  0.88770000  1.0
  C  C48  1  0.05730000  0.01460000  0.44180000  1.0
  C  C49  1  0.99190000  0.93830000  0.44940000  1.0
  C  C50  1  0.12310000  0.02790000  0.37760000  1.0
  C  C51  1  0.00810000  0.29460000  0.33240000  1.0
  C  C52  1  0.95570000  0.31730000  0.26160000  1.0
  C  C53  1  0.10860000  0.29360000  0.20700000  1.0
  C  C54  1  0.16900000  0.28110000  0.27690000  1.0
  C  C55  1  0.95260000  0.28220000  0.40090000  1.0
  C  C56  1  0.16520000  0.27060000  0.13960000  1.0
  C  C57  1  0.51020000  0.21440000  0.33630000  1.0
  C  C58  1  0.45070000  0.19130000  0.26800000  1.0
  C  C59  1  0.61440000  0.20690000  0.21610000  1.0
  C  C60  1  0.67250000  0.21780000  0.28450000  1.0
  C  C61  1  0.45020000  0.23250000  0.40470000  1.0
  C  C62  1  0.66600000  0.22300000  0.14340000  1.0
  C  C63  1  0.54640000  0.48840000  0.43690000  1.0
  C  C64  1  0.47050000  0.55060000  0.44280000  1.0
  C  C65  1  0.60330000  0.47100000  0.36870000  1.0
  C  C66  1  0.42700000  0.00960000  0.05010000  1.0
  C  C67  1  0.45680000  0.92780000  0.02490000  1.0
  C  C68  1  0.35470000  0.02050000  0.11000000  1.0
  C  C69  1  0.92410000  0.48840000  0.04850000  1.0
  C  C70  1  0.94700000  0.56640000  0.01770000  1.0
  C  C71  1  0.83940000  0.47460000  0.10280000  1.0
  C  C72  1  0.49950000  0.73430000  0.17620000  1.0
  C  C73  1  0.40520000  0.77660000  0.16990000  1.0
  C  C74  1  0.39110000  0.75990000  0.29530000  1.0
  C  C75  1  0.49470000  0.71500000  0.29950000  1.0
  C  C76  1  0.32540000  0.77090000  0.36140000  1.0
  C  C77  1  0.56940000  0.71450000  0.11110000  1.0
  C  C78  1  0.90180000  0.72460000  0.29460000  1.0
  C  C79  1  0.00900000  0.76340000  0.30360000  1.0
  C  C80  1  0.01470000  0.75270000  0.17660000  1.0
  C  C81  1  0.91170000  0.71220000  0.17160000  1.0
  C  C82  1  0.83070000  0.71400000  0.35650000  1.0
  C  C83  1  0.07870000  0.77820000  0.11230000  1.0
  C  C84  1  0.94270000  0.98540000  0.55820000  1.0
  C  C85  1  0.00810000  0.06170000  0.55060000  1.0
  C  C86  1  0.87690000  0.97210000  0.62240000  1.0
  C  C87  1  0.99190000  0.70540000  0.66760000  1.0
  C  C88  1  0.04430000  0.68270000  0.73840000  1.0
  C  C89  1  0.89140000  0.70640000  0.79300000  1.0
  C  C90  1  0.83100000  0.71890000  0.72310000  1.0
  C  C91  1  0.04740000  0.71780000  0.59910000  1.0
  C  C92  1  0.83480000  0.72940000  0.86040000  1.0
  C  C93  1  0.48980000  0.78560000  0.66370000  1.0
  C  C94  1  0.54930000  0.80870000  0.73200000  1.0
  C  C95  1  0.38560000  0.79310000  0.78390000  1.0
  C  C96  1  0.32750000  0.78220000  0.71550000  1.0
  C  C97  1  0.54980000  0.76750000  0.59530000  1.0
  C  C98  1  0.33400000  0.77700000  0.85660000  1.0
  C  C99  1  0.45360000  0.51160000  0.56310000  1.0
  C  C100  1  0.52950000  0.44940000  0.55720000  1.0
  C  C101  1  0.39670000  0.52900000  0.63130000  1.0
  C  C102  1  0.57300000  0.99040000  0.94990000  1.0
  C  C103  1  0.54320000  0.07220000  0.97510000  1.0
  C  C104  1  0.64530000  0.97950000  0.89000000  1.0
  C  C105  1  0.07590000  0.51160000  0.95150000  1.0
  C  C106  1  0.05300000  0.43360000  0.98230000  1.0
  C  C107  1  0.16060000  0.52540000  0.89720000  1.0
  N  N108  1  0.45150000  0.29640000  0.76010000  1.0
  N  N109  1  0.64890000  0.20460000  0.77070000  1.0
  N  N110  1  0.14480000  0.30450000  0.77130000  1.0
  N  N111  1  0.93340000  0.22010000  0.75470000  1.0
  N  N112  1  0.06550000  0.07690000  0.49290000  1.0
  N  N113  1  0.11680000  0.27820000  0.34110000  1.0
  N  N114  1  0.00280000  0.30940000  0.20000000  1.0
  N  N115  1  0.62160000  0.22650000  0.34670000  1.0
  N  N116  1  0.50080000  0.19680000  0.20600000  1.0
  N  N117  1  0.57840000  0.43460000  0.49550000  1.0
  N  N118  1  0.47070000  0.08100000  0.02410000  1.0
  N  N119  1  0.97540000  0.41780000  0.02900000  1.0
  N  N120  1  0.87840000  0.43200000  0.54190000  1.0
  N  N121  1  0.54850000  0.70360000  0.23990000  1.0
  N  N122  1  0.35110000  0.79540000  0.22930000  1.0
  N  N123  1  0.85520000  0.69550000  0.22870000  1.0
  N  N124  1  0.06660000  0.77990000  0.24530000  1.0
  N  N125  1  0.93450000  0.92310000  0.50710000  1.0
  N  N126  1  0.88320000  0.72180000  0.65890000  1.0
  N  N127  1  0.99720000  0.69060000  0.80000000  1.0
  N  N128  1  0.37840000  0.77350000  0.65330000  1.0
  N  N129  1  0.49920000  0.80320000  0.79400000  1.0
  N  N130  1  0.42160000  0.56540000  0.50450000  1.0
  N  N131  1  0.52930000  0.91900000  0.97590000  1.0
  N  N132  1  0.02460000  0.58220000  0.97100000  1.0
  N  N133  1  0.12160000  0.56800000  0.45810000  1.0
  O  O134  1  0.74490000  0.17370000  0.64870000  1.0
  O  O135  1  0.65310000  0.28040000  0.58640000  1.0
  O  O136  1  0.34760000  0.32980000  0.87650000  1.0
  O  O137  1  0.46970000  0.25200000  0.95280000  1.0
  O  O138  1  0.25410000  0.33950000  0.65740000  1.0
  O  O139  1  0.14190000  0.24200000  0.58490000  1.0
  O  O140  1  0.84280000  0.16750000  0.87470000  1.0
  O  O141  1  0.95860000  0.25400000  0.94770000  1.0
  O  O142  1  0.16880000  0.10000000  0.37490000  1.0
  O  O143  1  0.12510000  0.96550000  0.33470000  1.0
  O  O144  1  0.00860000  0.25070000  0.45690000  1.0
  O  O145  1  0.84960000  0.30580000  0.39390000  1.0
  O  O146  1  0.09890000  0.26340000  0.08070000  1.0
  O  O147  1  0.26820000  0.25860000  0.14790000  1.0
  O  O148  1  0.51430000  0.26760000  0.45960000  1.0
  O  O149  1  0.34820000  0.21870000  0.40010000  1.0
  O  O150  1  0.60080000  0.23340000  0.08460000  1.0
  O  O151  1  0.76950000  0.23020000  0.15120000  1.0
  O  O152  1  0.65200000  0.40320000  0.36490000  1.0
  O  O153  1  0.59650000  0.53060000  0.32220000  1.0
  O  O154  1  0.33080000  0.09710000  0.12300000  1.0
  O  O155  1  0.31710000  0.95470000  0.14310000  1.0
  O  O156  1  0.82240000  0.39830000  0.12060000  1.0
  O  O157  1  0.79520000  0.53920000  0.12690000  1.0
  O  O158  1  0.86600000  0.35130000  0.56060000  1.0
  O  O159  1  0.80730000  0.45540000  0.48770000  1.0
  O  O160  1  0.95320000  0.48060000  0.57380000  1.0
  O  O161  1  0.25510000  0.82630000  0.35130000  1.0
  O  O162  1  0.34690000  0.71960000  0.41360000  1.0
  O  O163  1  0.65240000  0.67020000  0.12350000  1.0
  O  O164  1  0.53030000  0.74800000  0.04720000  1.0
  O  O165  1  0.74590000  0.66050000  0.34260000  1.0
  O  O166  1  0.85810000  0.75800000  0.41510000  1.0
  O  O167  1  0.15720000  0.83250000  0.12530000  1.0
  O  O168  1  0.04140000  0.74600000  0.05230000  1.0
  O  O169  1  0.83120000  0.90000000  0.62510000  1.0
  O  O170  1  0.87490000  0.03450000  0.66530000  1.0
  O  O171  1  0.99140000  0.74930000  0.54310000  1.0
  O  O172  1  0.15040000  0.69420000  0.60610000  1.0
  O  O173  1  0.90110000  0.73660000  0.91930000  1.0
  O  O174  1  0.73180000  0.74140000  0.85210000  1.0
  O  O175  1  0.48570000  0.73240000  0.54040000  1.0
  O  O176  1  0.65180000  0.78130000  0.59990000  1.0
  O  O177  1  0.39920000  0.76660000  0.91540000  1.0
  O  O178  1  0.23050000  0.76980000  0.84880000  1.0
  O  O179  1  0.34800000  0.59680000  0.63510000  1.0
  O  O180  1  0.40350000  0.46940000  0.67780000  1.0
  O  O181  1  0.66920000  0.90290000  0.87700000  1.0
  O  O182  1  0.68290000  0.04530000  0.85690000  1.0
  O  O183  1  0.17760000  0.60170000  0.87940000  1.0
  O  O184  1  0.20480000  0.46080000  0.87310000  1.0
  O  O185  1  0.13400000  0.64870000  0.43940000  1.0
  O  O186  1  0.19270000  0.54460000  0.51230000  1.0
  O  O187  1  0.04680000  0.51940000  0.42620000  1.0
