# generated using pymatgen
data_Zn4H14C30O13
_symmetry_space_group_name_H-M   'P 1'
_cell_length_a   21.16900000
_cell_length_b   11.21960000
_cell_length_c   23.51690000
_cell_angle_alpha   90.00000000
_cell_angle_beta   90.00000000
_cell_angle_gamma   90.00000000
_symmetry_Int_Tables_number   1
_chemical_formula_structural   Zn4H14C30O13
_chemical_formula_sum   'Zn16 H56 C120 O52'
_cell_volume   5585.44512174
_cell_formula_units_Z   4
loop_
 _symmetry_equiv_pos_site_id
 _symmetry_equiv_pos_as_xyz
  1  'x, y, z'
loop_
 _atom_site_type_symbol
 _atom_site_label
 _atom_site_symmetry_multiplicity
 _atom_site_fract_x
 _atom_site_fract_y
 _atom_site_fract_z
 _atom_site_occupancy
  Zn  Zn0  1  0.40171000  0.72937000  0.85858000  1.0
  Zn  Zn1  1  0.39919000  0.00592000  0.85717000  1.0
  Zn  Zn2  1  0.33959000  0.87569000  0.96216000  1.0
  Zn  Zn3  1  0.48685000  0.83146000  0.94945000  1.0
  Zn  Zn4  1  0.59829000  0.27063000  0.35858000  1.0
  Zn  Zn5  1  0.60081000  0.99408000  0.35717000  1.0
  Zn  Zn6  1  0.66041000  0.12431000  0.46216000  1.0
  Zn  Zn7  1  0.51315000  0.16854000  0.44945000  1.0
  Zn  Zn8  1  0.90171000  0.77063000  0.85858000  1.0
  Zn  Zn9  1  0.89919000  0.49408000  0.85717000  1.0
  Zn  Zn10  1  0.83959000  0.62431000  0.96216000  1.0
  Zn  Zn11  1  0.98685000  0.66854000  0.94945000  1.0
  Zn  Zn12  1  0.09829000  0.22937000  0.35858000  1.0
  Zn  Zn13  1  0.10081000  0.50592000  0.35717000  1.0
  Zn  Zn14  1  0.16041000  0.37569000  0.46216000  1.0
  Zn  Zn15  1  0.01315000  0.33146000  0.44945000  1.0
  H  H16  1  0.65870000  0.66490000  0.88780000  1.0
  H  H17  1  0.72240000  0.47180000  0.75610000  1.0
  H  H18  1  0.54470000  0.57540000  0.75820000  1.0
  H  H19  1  0.68100000  0.30490000  0.71220000  1.0
  H  H20  1  0.66370000  0.20410000  0.62360000  1.0
  H  H21  1  0.55380000  0.55480000  0.66380000  1.0
  H  H22  1  0.36400000  0.99940000  0.67910000  1.0
  H  H23  1  0.21470000  0.72600000  0.63850000  1.0
  H  H24  1  0.26530000  0.70610000  0.72030000  1.0
  H  H25  1  0.22180000  0.04480000  0.54050000  1.0
  H  H26  1  0.13200000  0.86640000  0.41820000  1.0
  H  H27  1  0.19690000  0.69130000  0.54730000  1.0
  H  H28  1  0.30200000  0.01990000  0.59880000  1.0
  H  H29  1  0.52660000  0.44160000  0.58600000  1.0
  H  H30  1  0.34130000  0.33510000  0.38780000  1.0
  H  H31  1  0.27760000  0.52820000  0.25610000  1.0
  H  H32  1  0.45530000  0.42460000  0.25820000  1.0
  H  H33  1  0.31900000  0.69510000  0.21220000  1.0
  H  H34  1  0.33630000  0.79590000  0.12360000  1.0
  H  H35  1  0.44620000  0.44520000  0.16380000  1.0
  H  H36  1  0.63600000  0.00060000  0.17910000  1.0
  H  H37  1  0.78530000  0.27400000  0.13850000  1.0
  H  H38  1  0.73470000  0.29390000  0.22030000  1.0
  H  H39  1  0.77820000  0.95520000  0.04050000  1.0
  H  H40  1  0.86800000  0.13360000  0.91820000  1.0
  H  H41  1  0.80310000  0.30870000  0.04730000  1.0
  H  H42  1  0.69800000  0.98010000  0.09880000  1.0
  H  H43  1  0.47340000  0.55840000  0.08600000  1.0
  H  H44  1  0.15870000  0.83510000  0.88780000  1.0
  H  H45  1  0.22240000  0.02820000  0.75610000  1.0
  H  H46  1  0.04470000  0.92460000  0.75820000  1.0
  H  H47  1  0.18100000  0.19510000  0.71220000  1.0
  H  H48  1  0.16370000  0.29590000  0.62360000  1.0
  H  H49  1  0.05380000  0.94520000  0.66380000  1.0
  H  H50  1  0.86400000  0.50060000  0.67910000  1.0
  H  H51  1  0.71470000  0.77400000  0.63850000  1.0
  H  H52  1  0.76530000  0.79390000  0.72030000  1.0
  H  H53  1  0.72180000  0.45520000  0.54050000  1.0
  H  H54  1  0.63200000  0.63360000  0.41820000  1.0
  H  H55  1  0.69690000  0.80870000  0.54730000  1.0
  H  H56  1  0.80200000  0.48010000  0.59880000  1.0
  H  H57  1  0.02660000  0.05840000  0.58600000  1.0
  H  H58  1  0.84130000  0.16490000  0.38780000  1.0
  H  H59  1  0.77760000  0.97180000  0.25610000  1.0
  H  H60  1  0.95530000  0.07540000  0.25820000  1.0
  H  H61  1  0.81900000  0.80490000  0.21220000  1.0
  H  H62  1  0.83630000  0.70410000  0.12360000  1.0
  H  H63  1  0.94620000  0.05480000  0.16380000  1.0
  H  H64  1  0.13600000  0.49940000  0.17910000  1.0
  H  H65  1  0.28530000  0.22600000  0.13850000  1.0
  H  H66  1  0.23470000  0.20610000  0.22030000  1.0
  H  H67  1  0.27820000  0.54480000  0.04050000  1.0
  H  H68  1  0.36800000  0.36640000  0.91820000  1.0
  H  H69  1  0.30310000  0.19130000  0.04730000  1.0
  H  H70  1  0.19800000  0.51990000  0.09880000  1.0
  H  H71  1  0.97340000  0.94160000  0.08600000  1.0
  C  C72  1  0.53480000  0.67950000  0.85720000  1.0
  C  C73  1  0.59260000  0.62210000  0.82890000  1.0
  C  C74  1  0.65170000  0.62150000  0.85470000  1.0
  C  C75  1  0.70150000  0.55380000  0.82990000  1.0
  C  C76  1  0.68920000  0.50640000  0.77610000  1.0
  C  C77  1  0.63020000  0.50800000  0.75110000  1.0
  C  C78  1  0.58360000  0.56880000  0.77620000  1.0
  C  C79  1  0.76100000  0.55330000  0.85950000  1.0
  C  C80  1  0.61890000  0.44430000  0.69650000  1.0
  C  C81  1  0.65220000  0.33460000  0.68590000  1.0
  C  C82  1  0.63990000  0.27090000  0.63290000  1.0
  C  C83  1  0.59130000  0.31080000  0.59530000  1.0
  C  C84  1  0.57430000  0.48260000  0.65770000  1.0
  C  C85  1  0.36200000  0.83990000  0.76050000  1.0
  C  C86  1  0.32660000  0.85040000  0.70810000  1.0
  C  C87  1  0.33350000  0.94190000  0.67150000  1.0
  C  C88  1  0.25240000  0.86920000  0.60820000  1.0
  C  C89  1  0.24530000  0.78290000  0.64690000  1.0
  C  C90  1  0.27580000  0.76730000  0.69550000  1.0
  C  C91  1  0.21860000  0.86960000  0.55220000  1.0
  C  C92  1  0.20560000  0.97410000  0.52590000  1.0
  C  C93  1  0.16620000  0.97700000  0.47440000  1.0
  C  C94  1  0.15170000  0.86740000  0.45360000  1.0
  C  C95  1  0.19260000  0.76260000  0.52760000  1.0
  C  C96  1  0.16210000  0.76170000  0.47710000  1.0
  C  C97  1  0.15600000  0.09650000  0.45030000  1.0
  C  C98  1  0.14730000  0.64690000  0.45480000  1.0
  C  C99  1  0.29650000  0.95380000  0.62220000  1.0
  C  C100  1  0.55910000  0.41560000  0.60940000  1.0
  C  C101  1  0.57370000  0.24050000  0.54510000  1.0
  C  C102  1  0.46520000  0.32050000  0.35720000  1.0
  C  C103  1  0.40740000  0.37790000  0.32890000  1.0
  C  C104  1  0.34830000  0.37850000  0.35470000  1.0
  C  C105  1  0.29850000  0.44620000  0.32990000  1.0
  C  C106  1  0.31080000  0.49360000  0.27610000  1.0
  C  C107  1  0.36980000  0.49200000  0.25110000  1.0
  C  C108  1  0.41640000  0.43120000  0.27620000  1.0
  C  C109  1  0.23900000  0.44670000  0.35950000  1.0
  C  C110  1  0.38110000  0.55570000  0.19650000  1.0
  C  C111  1  0.34780000  0.66540000  0.18590000  1.0
  C  C112  1  0.36010000  0.72910000  0.13290000  1.0
  C  C113  1  0.40870000  0.68920000  0.09530000  1.0
  C  C114  1  0.42570000  0.51740000  0.15770000  1.0
  C  C115  1  0.63800000  0.16010000  0.26050000  1.0
  C  C116  1  0.67340000  0.14960000  0.20810000  1.0
  C  C117  1  0.66650000  0.05810000  0.17150000  1.0
  C  C118  1  0.74760000  0.13080000  0.10820000  1.0
  C  C119  1  0.75470000  0.21710000  0.14690000  1.0
  C  C120  1  0.72420000  0.23270000  0.19550000  1.0
  C  C121  1  0.78140000  0.13040000  0.05220000  1.0
  C  C122  1  0.79440000  0.02590000  0.02590000  1.0
  C  C123  1  0.83380000  0.02300000  0.97440000  1.0
  C  C124  1  0.84830000  0.13260000  0.95360000  1.0
  C  C125  1  0.80740000  0.23740000  0.02760000  1.0
  C  C126  1  0.83790000  0.23830000  0.97710000  1.0
  C  C127  1  0.84400000  0.90350000  0.95030000  1.0
  C  C128  1  0.85270000  0.35310000  0.95480000  1.0
  C  C129  1  0.70350000  0.04620000  0.12220000  1.0
  C  C130  1  0.44090000  0.58440000  0.10940000  1.0
  C  C131  1  0.42630000  0.75950000  0.04510000  1.0
  C  C132  1  0.03480000  0.82050000  0.85720000  1.0
  C  C133  1  0.09260000  0.87790000  0.82890000  1.0
  C  C134  1  0.15170000  0.87850000  0.85470000  1.0
  C  C135  1  0.20150000  0.94620000  0.82990000  1.0
  C  C136  1  0.18920000  0.99360000  0.77610000  1.0
  C  C137  1  0.13020000  0.99200000  0.75110000  1.0
  C  C138  1  0.08360000  0.93120000  0.77620000  1.0
  C  C139  1  0.26100000  0.94670000  0.85950000  1.0
  C  C140  1  0.11890000  0.05570000  0.69650000  1.0
  C  C141  1  0.15220000  0.16540000  0.68590000  1.0
  C  C142  1  0.13990000  0.22910000  0.63290000  1.0
  C  C143  1  0.09130000  0.18920000  0.59530000  1.0
  C  C144  1  0.07430000  0.01740000  0.65770000  1.0
  C  C145  1  0.86200000  0.66010000  0.76050000  1.0
  C  C146  1  0.82660000  0.64960000  0.70810000  1.0
  C  C147  1  0.83350000  0.55810000  0.67150000  1.0
  C  C148  1  0.75240000  0.63080000  0.60820000  1.0
  C  C149  1  0.74530000  0.71710000  0.64690000  1.0
  C  C150  1  0.77580000  0.73270000  0.69550000  1.0
  C  C151  1  0.71860000  0.63040000  0.55220000  1.0
  C  C152  1  0.70560000  0.52590000  0.52590000  1.0
  C  C153  1  0.66620000  0.52300000  0.47440000  1.0
  C  C154  1  0.65170000  0.63260000  0.45360000  1.0
  C  C155  1  0.69260000  0.73740000  0.52760000  1.0
  C  C156  1  0.66210000  0.73830000  0.47710000  1.0
  C  C157  1  0.65600000  0.40350000  0.45030000  1.0
  C  C158  1  0.64730000  0.85310000  0.45480000  1.0
  C  C159  1  0.79650000  0.54620000  0.62220000  1.0
  C  C160  1  0.05910000  0.08440000  0.60940000  1.0
  C  C161  1  0.07370000  0.25950000  0.54510000  1.0
  C  C162  1  0.96520000  0.17950000  0.35720000  1.0
  C  C163  1  0.90740000  0.12210000  0.32890000  1.0
  C  C164  1  0.84830000  0.12150000  0.35470000  1.0
  C  C165  1  0.79850000  0.05380000  0.32990000  1.0
  C  C166  1  0.81080000  0.00640000  0.27610000  1.0
  C  C167  1  0.86980000  0.00800000  0.25110000  1.0
  C  C168  1  0.91640000  0.06880000  0.27620000  1.0
  C  C169  1  0.73900000  0.05330000  0.35950000  1.0
  C  C170  1  0.88110000  0.94430000  0.19650000  1.0
  C  C171  1  0.84780000  0.83460000  0.18590000  1.0
  C  C172  1  0.86010000  0.77090000  0.13290000  1.0
  C  C173  1  0.90870000  0.81080000  0.09530000  1.0
  C  C174  1  0.92570000  0.98260000  0.15770000  1.0
  C  C175  1  0.13800000  0.33990000  0.26050000  1.0
  C  C176  1  0.17340000  0.35040000  0.20810000  1.0
  C  C177  1  0.16650000  0.44190000  0.17150000  1.0
  C  C178  1  0.24760000  0.36920000  0.10820000  1.0
  C  C179  1  0.25470000  0.28290000  0.14690000  1.0
  C  C180  1  0.22420000  0.26730000  0.19550000  1.0
  C  C181  1  0.28140000  0.36960000  0.05220000  1.0
  C  C182  1  0.29440000  0.47410000  0.02590000  1.0
  C  C183  1  0.33380000  0.47700000  0.97440000  1.0
  C  C184  1  0.34830000  0.36740000  0.95360000  1.0
  C  C185  1  0.30740000  0.26260000  0.02760000  1.0
  C  C186  1  0.33790000  0.26170000  0.97710000  1.0
  C  C187  1  0.34400000  0.59650000  0.95030000  1.0
  C  C188  1  0.35270000  0.14690000  0.95480000  1.0
  C  C189  1  0.20350000  0.45380000  0.12220000  1.0
  C  C190  1  0.94090000  0.91560000  0.10940000  1.0
  C  C191  1  0.92630000  0.74050000  0.04510000  1.0
  O  O192  1  0.41160000  0.86670000  0.90700000  1.0
  O  O193  1  0.48440000  0.67290000  0.83290000  1.0
  O  O194  1  0.54530000  0.74060000  0.90410000  1.0
  O  O195  1  0.76940000  0.62010000  0.90190000  1.0
  O  O196  1  0.80510000  0.49130000  0.83830000  1.0
  O  O197  1  0.39960000  0.91530000  0.77370000  1.0
  O  O198  1  0.35060000  0.74430000  0.79100000  1.0
  O  O199  1  0.17470000  0.18840000  0.46800000  1.0
  O  O200  1  0.12640000  0.08820000  0.39950000  1.0
  O  O201  1  0.10830000  0.65050000  0.40810000  1.0
  O  O202  1  0.16130000  0.55440000  0.47710000  1.0
  O  O203  1  0.60400000  0.14510000  0.53520000  1.0
  O  O204  1  0.53160000  0.28100000  0.51510000  1.0
  O  O205  1  0.58840000  0.13330000  0.40700000  1.0
  O  O206  1  0.51560000  0.32710000  0.33290000  1.0
  O  O207  1  0.45470000  0.25940000  0.40410000  1.0
  O  O208  1  0.23060000  0.37990000  0.40190000  1.0
  O  O209  1  0.19490000  0.50870000  0.33830000  1.0
  O  O210  1  0.60040000  0.08470000  0.27370000  1.0
  O  O211  1  0.64940000  0.25570000  0.29100000  1.0
  O  O212  1  0.82530000  0.81160000  0.96800000  1.0
  O  O213  1  0.87360000  0.91180000  0.89950000  1.0
  O  O214  1  0.89170000  0.34950000  0.90810000  1.0
  O  O215  1  0.83870000  0.44560000  0.97710000  1.0
  O  O216  1  0.39600000  0.85490000  0.03520000  1.0
  O  O217  1  0.46840000  0.71900000  0.01510000  1.0
  O  O218  1  0.91160000  0.63330000  0.90700000  1.0
  O  O219  1  0.98440000  0.82710000  0.83290000  1.0
  O  O220  1  0.04530000  0.75940000  0.90410000  1.0
  O  O221  1  0.26940000  0.87990000  0.90190000  1.0
  O  O222  1  0.30510000  0.00870000  0.83830000  1.0
  O  O223  1  0.89960000  0.58470000  0.77370000  1.0
  O  O224  1  0.85060000  0.75570000  0.79100000  1.0
  O  O225  1  0.67470000  0.31160000  0.46800000  1.0
  O  O226  1  0.62640000  0.41180000  0.39950000  1.0
  O  O227  1  0.60830000  0.84950000  0.40810000  1.0
  O  O228  1  0.66130000  0.94560000  0.47710000  1.0
  O  O229  1  0.10400000  0.35490000  0.53520000  1.0
  O  O230  1  0.03160000  0.21900000  0.51510000  1.0
  O  O231  1  0.08840000  0.36670000  0.40700000  1.0
  O  O232  1  0.01560000  0.17290000  0.33290000  1.0
  O  O233  1  0.95470000  0.24060000  0.40410000  1.0
  O  O234  1  0.73060000  0.12010000  0.40190000  1.0
  O  O235  1  0.69490000  0.99130000  0.33830000  1.0
  O  O236  1  0.10040000  0.41530000  0.27370000  1.0
  O  O237  1  0.14940000  0.24430000  0.29100000  1.0
  O  O238  1  0.32530000  0.68840000  0.96800000  1.0
  O  O239  1  0.37360000  0.58820000  0.89950000  1.0
  O  O240  1  0.39170000  0.15050000  0.90810000  1.0
  O  O241  1  0.33870000  0.05440000  0.97710000  1.0
  O  O242  1  0.89600000  0.64510000  0.03520000  1.0
  O  O243  1  0.96840000  0.78100000  0.01510000  1.0
