# generated using pymatgen
data_Pr2H18(C5O4)3
_symmetry_space_group_name_H-M   'P 1'
_cell_length_a   8.71700000
_cell_length_b   13.08300000
_cell_length_c   31.05000000
_cell_angle_alpha   90.00000000
_cell_angle_beta   90.00000000
_cell_angle_gamma   90.00000000
_symmetry_Int_Tables_number   1
_chemical_formula_structural   Pr2H18(C5O4)3
_chemical_formula_sum   'Pr8 H72 C60 O48'
_cell_volume   3541.08206655
_cell_formula_units_Z   4
loop_
 _symmetry_equiv_pos_site_id
 _symmetry_equiv_pos_as_xyz
  1  'x, y, z'
loop_
 _atom_site_type_symbol
 _atom_site_label
 _atom_site_symmetry_multiplicity
 _atom_site_fract_x
 _atom_site_fract_y
 _atom_site_fract_z
 _atom_site_occupancy
  Pr  Pr0  1  0.66878000  0.23915000  0.90670000  1.0
  Pr  Pr1  1  0.83122000  0.73915000  0.09330000  1.0
  Pr  Pr2  1  0.33122000  0.76085000  0.40670000  1.0
  Pr  Pr3  1  0.16878000  0.26085000  0.59330000  1.0
  Pr  Pr4  1  0.33122000  0.76085000  0.09330000  1.0
  Pr  Pr5  1  0.16878000  0.26085000  0.90670000  1.0
  Pr  Pr6  1  0.66878000  0.23915000  0.59330000  1.0
  Pr  Pr7  1  0.83122000  0.73915000  0.40670000  1.0
  H  H8  1  0.61710000  0.87610000  0.87380000  1.0
  H  H9  1  0.76000000  0.86750000  0.90440000  1.0
  H  H10  1  0.53360000  0.78300000  0.93260000  1.0
  H  H11  1  0.45700000  0.89090000  0.93730000  1.0
  H  H12  1  0.64490000  0.93960000  0.98730000  1.0
  H  H13  1  0.72750000  0.83410000  0.98170000  1.0
  H  H14  1  0.99560000  0.09280000  0.79160000  1.0
  H  H15  1  0.05610000  0.20560000  0.79060000  1.0
  H  H16  1  0.88290000  0.37610000  0.12620000  1.0
  H  H17  1  0.74000000  0.36750000  0.09560000  1.0
  H  H18  1  0.96640000  0.28300000  0.06740000  1.0
  H  H19  1  0.04300000  0.39090000  0.06270000  1.0
  H  H20  1  0.85510000  0.43960000  0.01270000  1.0
  H  H21  1  0.77250000  0.33410000  0.01830000  1.0
  H  H22  1  0.50440000  0.59280000  0.20840000  1.0
  H  H23  1  0.44390000  0.70560000  0.20940000  1.0
  H  H24  1  0.38290000  0.12390000  0.37380000  1.0
  H  H25  1  0.24000000  0.13250000  0.40440000  1.0
  H  H26  1  0.46640000  0.21700000  0.43260000  1.0
  H  H27  1  0.54300000  0.10910000  0.43730000  1.0
  H  H28  1  0.35510000  0.06040000  0.48730000  1.0
  H  H29  1  0.27250000  0.16590000  0.48170000  1.0
  H  H30  1  0.00440000  0.90720000  0.29160000  1.0
  H  H31  1  0.94390000  0.79440000  0.29060000  1.0
  H  H32  1  0.11710000  0.62390000  0.62620000  1.0
  H  H33  1  0.26000000  0.63250000  0.59560000  1.0
  H  H34  1  0.03360000  0.71700000  0.56740000  1.0
  H  H35  1  0.95700000  0.60910000  0.56270000  1.0
  H  H36  1  0.14490000  0.56040000  0.51270000  1.0
  H  H37  1  0.22750000  0.66590000  0.51830000  1.0
  H  H38  1  0.49560000  0.40720000  0.70840000  1.0
  H  H39  1  0.55610000  0.29440000  0.70940000  1.0
  H  H40  1  0.38290000  0.12390000  0.12620000  1.0
  H  H41  1  0.24000000  0.13250000  0.09560000  1.0
  H  H42  1  0.46640000  0.21700000  0.06740000  1.0
  H  H43  1  0.54300000  0.10910000  0.06270000  1.0
  H  H44  1  0.35510000  0.06040000  0.01270000  1.0
  H  H45  1  0.27250000  0.16590000  0.01830000  1.0
  H  H46  1  0.00440000  0.90720000  0.20840000  1.0
  H  H47  1  0.94390000  0.79440000  0.20940000  1.0
  H  H48  1  0.11710000  0.62390000  0.87380000  1.0
  H  H49  1  0.26000000  0.63250000  0.90440000  1.0
  H  H50  1  0.03360000  0.71700000  0.93260000  1.0
  H  H51  1  0.95700000  0.60910000  0.93730000  1.0
  H  H52  1  0.14490000  0.56040000  0.98730000  1.0
  H  H53  1  0.22750000  0.66590000  0.98170000  1.0
  H  H54  1  0.49560000  0.40720000  0.79160000  1.0
  H  H55  1  0.55610000  0.29440000  0.79060000  1.0
  H  H56  1  0.61710000  0.87610000  0.62620000  1.0
  H  H57  1  0.76000000  0.86750000  0.59560000  1.0
  H  H58  1  0.53360000  0.78300000  0.56740000  1.0
  H  H59  1  0.45700000  0.89090000  0.56270000  1.0
  H  H60  1  0.64490000  0.93960000  0.51270000  1.0
  H  H61  1  0.72750000  0.83410000  0.51830000  1.0
  H  H62  1  0.99560000  0.09280000  0.70840000  1.0
  H  H63  1  0.05610000  0.20560000  0.70940000  1.0
  H  H64  1  0.88290000  0.37610000  0.37380000  1.0
  H  H65  1  0.74000000  0.36750000  0.40440000  1.0
  H  H66  1  0.96640000  0.28300000  0.43260000  1.0
  H  H67  1  0.04300000  0.39090000  0.43730000  1.0
  H  H68  1  0.85510000  0.43960000  0.48730000  1.0
  H  H69  1  0.77250000  0.33410000  0.48170000  1.0
  H  H70  1  0.50440000  0.59280000  0.29160000  1.0
  H  H71  1  0.44390000  0.70560000  0.29060000  1.0
  H  H72  1  0.78450000  0.13960000  0.75000000  1.0
  H  H73  1  0.83960000  0.25350000  0.75000000  1.0
  H  H74  1  0.71550000  0.63960000  0.25000000  1.0
  H  H75  1  0.66040000  0.75350000  0.25000000  1.0
  H  H76  1  0.21550000  0.86040000  0.25000000  1.0
  H  H77  1  0.16040000  0.74650000  0.25000000  1.0
  H  H78  1  0.28450000  0.36040000  0.75000000  1.0
  H  H79  1  0.33960000  0.24650000  0.75000000  1.0
  C  C80  1  0.66770000  0.01310000  0.90388000  1.0
  C  C81  1  0.65810000  0.89640000  0.90160000  1.0
  C  C82  1  0.55410000  0.85480000  0.93780000  1.0
  C  C83  1  0.62800000  0.86740000  0.98200000  1.0
  C  C84  1  0.53540000  0.82430000  0.01850000  1.0
  C  C85  1  0.87360000  0.18750000  0.83093000  1.0
  C  C86  1  0.96410000  0.16390000  0.79090000  1.0
  C  C87  1  0.83230000  0.51310000  0.09612000  1.0
  C  C88  1  0.84190000  0.39640000  0.09840000  1.0
  C  C89  1  0.94590000  0.35480000  0.06220000  1.0
  C  C90  1  0.87200000  0.36740000  0.01800000  1.0
  C  C91  1  0.96460000  0.32430000  0.98150000  1.0
  C  C92  1  0.62640000  0.68750000  0.16907000  1.0
  C  C93  1  0.53590000  0.66390000  0.20910000  1.0
  C  C94  1  0.33230000  0.98690000  0.40388000  1.0
  C  C95  1  0.34190000  0.10360000  0.40160000  1.0
  C  C96  1  0.44590000  0.14520000  0.43780000  1.0
  C  C97  1  0.37200000  0.13260000  0.48200000  1.0
  C  C98  1  0.46460000  0.17570000  0.51850000  1.0
  C  C99  1  0.12640000  0.81250000  0.33093000  1.0
  C  C100  1  0.03590000  0.83610000  0.29090000  1.0
  C  C101  1  0.16770000  0.48690000  0.59612000  1.0
  C  C102  1  0.15810000  0.60360000  0.59840000  1.0
  C  C103  1  0.05410000  0.64520000  0.56220000  1.0
  C  C104  1  0.12800000  0.63260000  0.51800000  1.0
  C  C105  1  0.03540000  0.67570000  0.48150000  1.0
  C  C106  1  0.37360000  0.31250000  0.66907000  1.0
  C  C107  1  0.46410000  0.33610000  0.70910000  1.0
  C  C108  1  0.33230000  0.98690000  0.09612000  1.0
  C  C109  1  0.34190000  0.10360000  0.09840000  1.0
  C  C110  1  0.44590000  0.14520000  0.06220000  1.0
  C  C111  1  0.37200000  0.13260000  0.01800000  1.0
  C  C112  1  0.46460000  0.17570000  0.98150000  1.0
  C  C113  1  0.12640000  0.81250000  0.16907000  1.0
  C  C114  1  0.03590000  0.83610000  0.20910000  1.0
  C  C115  1  0.16770000  0.48690000  0.90388000  1.0
  C  C116  1  0.15810000  0.60360000  0.90160000  1.0
  C  C117  1  0.05410000  0.64520000  0.93780000  1.0
  C  C118  1  0.12800000  0.63260000  0.98200000  1.0
  C  C119  1  0.03540000  0.67570000  0.01850000  1.0
  C  C120  1  0.37360000  0.31250000  0.83093000  1.0
  C  C121  1  0.46410000  0.33610000  0.79090000  1.0
  C  C122  1  0.66770000  0.01310000  0.59612000  1.0
  C  C123  1  0.65810000  0.89640000  0.59840000  1.0
  C  C124  1  0.55410000  0.85480000  0.56220000  1.0
  C  C125  1  0.62800000  0.86740000  0.51800000  1.0
  C  C126  1  0.53540000  0.82430000  0.48150000  1.0
  C  C127  1  0.87360000  0.18750000  0.66907000  1.0
  C  C128  1  0.96410000  0.16390000  0.70910000  1.0
  C  C129  1  0.83230000  0.51310000  0.40388000  1.0
  C  C130  1  0.84190000  0.39640000  0.40160000  1.0
  C  C131  1  0.94590000  0.35480000  0.43780000  1.0
  C  C132  1  0.87200000  0.36740000  0.48200000  1.0
  C  C133  1  0.96460000  0.32430000  0.51850000  1.0
  C  C134  1  0.62640000  0.68750000  0.33093000  1.0
  C  C135  1  0.53590000  0.66390000  0.29090000  1.0
  C  C136  1  0.87460000  0.18310000  0.75000000  1.0
  C  C137  1  0.62540000  0.68310000  0.25000000  1.0
  C  C138  1  0.12540000  0.81690000  0.25000000  1.0
  C  C139  1  0.37460000  0.31690000  0.75000000  1.0
  O  O140  1  0.78750000  0.05790000  0.91538000  1.0
  O  O141  1  0.54770000  0.06480000  0.89508000  1.0
  O  O142  1  0.39150000  0.82620000  0.01751000  1.0
  O  O143  1  0.60560000  0.78700000  0.05114000  1.0
  O  O144  1  0.73190000  0.17620000  0.83135000  1.0
  O  O145  1  0.94320000  0.21620000  0.86528000  1.0
  O  O146  1  0.71250000  0.55790000  0.08462000  1.0
  O  O147  1  0.95230000  0.56480000  0.10492000  1.0
  O  O148  1  0.10850000  0.32620000  0.98249000  1.0
  O  O149  1  0.89440000  0.28700000  0.94886000  1.0
  O  O150  1  0.76810000  0.67620000  0.16865000  1.0
  O  O151  1  0.55680000  0.71620000  0.13472000  1.0
  O  O152  1  0.21250000  0.94210000  0.41538000  1.0
  O  O153  1  0.45230000  0.93520000  0.39508000  1.0
  O  O154  1  0.60850000  0.17380000  0.51751000  1.0
  O  O155  1  0.39440000  0.21300000  0.55114000  1.0
  O  O156  1  0.26810000  0.82380000  0.33135000  1.0
  O  O157  1  0.05680000  0.78380000  0.36528000  1.0
  O  O158  1  0.28750000  0.44210000  0.58462000  1.0
  O  O159  1  0.04770000  0.43520000  0.60492000  1.0
  O  O160  1  0.89150000  0.67380000  0.48249000  1.0
  O  O161  1  0.10560000  0.71300000  0.44886000  1.0
  O  O162  1  0.23190000  0.32380000  0.66865000  1.0
  O  O163  1  0.44320000  0.28380000  0.63472000  1.0
  O  O164  1  0.21250000  0.94210000  0.08462000  1.0
  O  O165  1  0.45230000  0.93520000  0.10492000  1.0
  O  O166  1  0.60850000  0.17380000  0.98249000  1.0
  O  O167  1  0.39440000  0.21300000  0.94886000  1.0
  O  O168  1  0.26810000  0.82380000  0.16865000  1.0
  O  O169  1  0.05680000  0.78380000  0.13472000  1.0
  O  O170  1  0.28750000  0.44210000  0.91538000  1.0
  O  O171  1  0.04770000  0.43520000  0.89508000  1.0
  O  O172  1  0.89150000  0.67380000  0.01751000  1.0
  O  O173  1  0.10560000  0.71300000  0.05114000  1.0
  O  O174  1  0.23190000  0.32380000  0.83135000  1.0
  O  O175  1  0.44320000  0.28380000  0.86528000  1.0
  O  O176  1  0.78750000  0.05790000  0.58462000  1.0
  O  O177  1  0.54770000  0.06480000  0.60492000  1.0
  O  O178  1  0.39150000  0.82620000  0.48249000  1.0
  O  O179  1  0.60560000  0.78700000  0.44886000  1.0
  O  O180  1  0.73190000  0.17620000  0.66865000  1.0
  O  O181  1  0.94320000  0.21620000  0.63472000  1.0
  O  O182  1  0.71250000  0.55790000  0.41538000  1.0
  O  O183  1  0.95230000  0.56480000  0.39508000  1.0
  O  O184  1  0.10850000  0.32620000  0.51751000  1.0
  O  O185  1  0.89440000  0.28700000  0.55114000  1.0
  O  O186  1  0.76810000  0.67620000  0.33135000  1.0
  O  O187  1  0.55680000  0.71620000  0.36528000  1.0
