# generated using pymatgen
data_Ba3U4P4H4C2(O7F3)2
_symmetry_space_group_name_H-M   'P 1'
_cell_length_a   11.92340000
_cell_length_b   11.92340000
_cell_length_c   12.67480000
_cell_angle_alpha   69.66370000
_cell_angle_beta   69.66370000
_cell_angle_gamma   88.94220000
_symmetry_Int_Tables_number   1
_chemical_formula_structural   Ba3U4P4H4C2(O7F3)2
_chemical_formula_sum   'Ba6 U8 P8 H8 C4 O28 F12'
_cell_volume   1573.54681915
_cell_formula_units_Z   2
loop_
 _symmetry_equiv_pos_site_id
 _symmetry_equiv_pos_as_xyz
  1  'x, y, z'
loop_
 _atom_site_type_symbol
 _atom_site_label
 _atom_site_symmetry_multiplicity
 _atom_site_fract_x
 _atom_site_fract_y
 _atom_site_fract_z
 _atom_site_occupancy
  Ba  Ba0  1  0.91363000  0.52175000  0.17176000  1.0
  Ba  Ba1  1  0.47825000  0.08637000  0.32824000  1.0
  Ba  Ba2  1  0.08637000  0.47825000  0.82824000  1.0
  Ba  Ba3  1  0.52175000  0.91363000  0.67176000  1.0
  Ba  Ba4  1  0.86269000  0.13731000  0.25000000  1.0
  Ba  Ba5  1  0.13731000  0.86269000  0.75000000  1.0
  U  U6  1  0.71343000  0.39397000  0.02756000  1.0
  U  U7  1  0.86168000  0.86887000  0.60100000  1.0
  U  U8  1  0.60603000  0.28657000  0.47244000  1.0
  U  U9  1  0.13113000  0.13832000  0.89900000  1.0
  U  U10  1  0.28657000  0.60603000  0.97244000  1.0
  U  U11  1  0.13832000  0.13113000  0.39900000  1.0
  U  U12  1  0.39397000  0.71343000  0.52756000  1.0
  U  U13  1  0.86887000  0.86168000  0.10100000  1.0
  P  P14  1  0.38299000  0.33495000  0.13488000  1.0
  P  P15  1  0.15897000  0.29781000  0.09309000  1.0
  P  P16  1  0.66505000  0.61701000  0.36512000  1.0
  P  P17  1  0.70219000  0.84103000  0.40691000  1.0
  P  P18  1  0.61701000  0.66505000  0.86512000  1.0
  P  P19  1  0.84103000  0.70219000  0.90691000  1.0
  P  P20  1  0.33495000  0.38299000  0.63488000  1.0
  P  P21  1  0.29781000  0.15897000  0.59309000  1.0
  H  H22  1  0.32500000  0.19420000  0.06990000  1.0
  H  H23  1  0.35670000  0.32170000  0.96660000  1.0
  H  H24  1  0.80580000  0.67500000  0.43010000  1.0
  H  H25  1  0.67830000  0.64330000  0.53340000  1.0
  H  H26  1  0.67500000  0.80580000  0.93010000  1.0
  H  H27  1  0.64330000  0.67830000  0.03340000  1.0
  H  H28  1  0.19420000  0.32500000  0.56990000  1.0
  H  H29  1  0.32170000  0.35670000  0.46660000  1.0
  C  C30  1  0.31554000  0.27892000  0.05259000  1.0
  C  C31  1  0.72108000  0.68446000  0.44741000  1.0
  C  C32  1  0.68446000  0.72108000  0.94741000  1.0
  C  C33  1  0.27892000  0.31554000  0.55259000  1.0
  O  O34  1  0.14055000  0.42763000  0.08118000  1.0
  O  O35  1  0.37166000  0.46906000  0.09934000  1.0
  O  O36  1  0.77979000  0.97633000  0.65532000  1.0
  O  O37  1  0.09281000  0.21185000  0.22399000  1.0
  O  O38  1  0.30951000  0.26431000  0.26953000  1.0
  O  O39  1  0.51219000  0.30509000  0.10708000  1.0
  O  O40  1  0.11197000  0.26373000  0.00900000  1.0
  O  O41  1  0.57237000  0.85945000  0.41882000  1.0
  O  O42  1  0.53094000  0.62834000  0.40066000  1.0
  O  O43  1  0.02367000  0.22021000  0.84468000  1.0
  O  O44  1  0.78815000  0.90719000  0.27601000  1.0
  O  O45  1  0.73569000  0.69049000  0.23047000  1.0
  O  O46  1  0.69491000  0.48781000  0.39292000  1.0
  O  O47  1  0.73627000  0.88803000  0.49100000  1.0
  O  O48  1  0.85945000  0.57237000  0.91882000  1.0
  O  O49  1  0.62834000  0.53094000  0.90066000  1.0
  O  O50  1  0.22021000  0.02367000  0.34468000  1.0
  O  O51  1  0.90719000  0.78815000  0.77601000  1.0
  O  O52  1  0.69049000  0.73569000  0.73047000  1.0
  O  O53  1  0.48781000  0.69491000  0.89292000  1.0
  O  O54  1  0.88803000  0.73627000  0.99100000  1.0
  O  O55  1  0.42763000  0.14055000  0.58118000  1.0
  O  O56  1  0.46906000  0.37166000  0.59934000  1.0
  O  O57  1  0.97633000  0.77979000  0.15532000  1.0
  O  O58  1  0.21185000  0.09281000  0.72399000  1.0
  O  O59  1  0.26431000  0.30951000  0.76953000  1.0
  O  O60  1  0.30509000  0.51219000  0.60708000  1.0
  O  O61  1  0.26373000  0.11197000  0.50900000  1.0
  F  F62  1  0.89185000  0.36465000  0.06631000  1.0
  F  F63  1  0.79647000  0.30933000  0.32771000  1.0
  F  F64  1  0.95801000  0.02885000  0.41673000  1.0
  F  F65  1  0.63535000  0.10815000  0.43369000  1.0
  F  F66  1  0.69067000  0.20353000  0.17229000  1.0
  F  F67  1  0.97115000  0.04199000  0.08327000  1.0
  F  F68  1  0.10815000  0.63535000  0.93369000  1.0
  F  F69  1  0.20353000  0.69067000  0.67229000  1.0
  F  F70  1  0.04199000  0.97115000  0.58327000  1.0
  F  F71  1  0.36465000  0.89185000  0.56631000  1.0
  F  F72  1  0.30933000  0.79647000  0.82771000  1.0
  F  F73  1  0.02885000  0.95801000  0.91673000  1.0
