# generated using pymatgen
data_Cd4Ag8H55(C8N3)8
_symmetry_space_group_name_H-M   'P 1'
_cell_length_a   14.00100000
_cell_length_b   19.98460000
_cell_length_c   19.98460000
_cell_angle_alpha   81.12090000
_cell_angle_beta   69.49470000
_cell_angle_gamma   69.49470000
_symmetry_Int_Tables_number   1
_chemical_formula_structural   Cd4Ag8H55(C8N3)8
_chemical_formula_sum   'Cd8 Ag16 H110 C128 N48'
_cell_volume   4902.44216416
_cell_formula_units_Z   2
loop_
 _symmetry_equiv_pos_site_id
 _symmetry_equiv_pos_as_xyz
  1  'x, y, z'
loop_
 _atom_site_type_symbol
 _atom_site_label
 _atom_site_symmetry_multiplicity
 _atom_site_fract_x
 _atom_site_fract_y
 _atom_site_fract_z
 _atom_site_occupancy
  Cd  Cd0  1  0.99194000  0.75615000  0.01975000  1.0
  Cd  Cd1  1  0.26784000  0.74385000  0.48025000  1.0
  Cd  Cd2  1  0.76784000  0.48025000  0.74385000  1.0
  Cd  Cd3  1  0.49194000  0.01975000  0.75615000  1.0
  Cd  Cd4  1  0.23216000  0.51975000  0.25615000  1.0
  Cd  Cd5  1  0.50806000  0.98025000  0.24385000  1.0
  Cd  Cd6  1  0.00806000  0.24385000  0.98025000  1.0
  Cd  Cd7  1  0.73216000  0.25615000  0.51975000  1.0
  Ag  Ag8  1  0.38104000  0.68892000  0.80742000  1.0
  Ag  Ag9  1  0.63981000  0.72663000  0.24921000  1.0
  Ag  Ag10  1  0.37738000  0.81108000  0.69258000  1.0
  Ag  Ag11  1  0.11565000  0.77337000  0.25079000  1.0
  Ag  Ag12  1  0.87738000  0.69258000  0.81108000  1.0
  Ag  Ag13  1  0.61565000  0.25079000  0.77337000  1.0
  Ag  Ag14  1  0.88104000  0.80742000  0.68892000  1.0
  Ag  Ag15  1  0.13981000  0.24921000  0.72663000  1.0
  Ag  Ag16  1  0.12262000  0.30742000  0.18892000  1.0
  Ag  Ag17  1  0.38435000  0.74921000  0.22663000  1.0
  Ag  Ag18  1  0.11896000  0.19258000  0.31108000  1.0
  Ag  Ag19  1  0.86019000  0.75079000  0.27337000  1.0
  Ag  Ag20  1  0.61896000  0.31108000  0.19258000  1.0
  Ag  Ag21  1  0.36019000  0.27337000  0.75079000  1.0
  Ag  Ag22  1  0.62262000  0.18892000  0.30742000  1.0
  Ag  Ag23  1  0.88435000  0.22663000  0.74921000  1.0
  H  H24  1  0.10341000  0.63959000  0.90270000  1.0
  H  H25  1  0.17044000  0.50397000  0.89057000  1.0
  H  H26  1  0.07987000  0.48250000  0.12500000  1.0
  H  H27  1  0.01322000  0.61710000  0.12877000  1.0
  H  H28  1  0.16713000  0.38885000  0.94987000  1.0
  H  H29  1  0.13059000  0.37674000  0.04889000  1.0
  H  H30  1  0.26636000  0.38232000  0.99483000  1.0
  H  H31  1  0.85614000  0.87559000  0.13077000  1.0
  H  H32  1  0.77615000  0.00869000  0.14156000  1.0
  H  H33  1  0.92599000  0.02169000  0.90594000  1.0
  H  H34  1  0.00091000  0.89068000  0.90580000  1.0
  H  H35  1  0.71562000  0.12728000  0.06860000  1.0
  H  H36  1  0.76934000  0.12801000  0.96918000  1.0
  H  H37  1  0.85192000  0.13540000  0.02149000  1.0
  H  H38  1  0.14570000  0.86041000  0.59730000  1.0
  H  H39  1  0.06498000  0.99603000  0.60943000  1.0
  H  H40  1  0.18737000  0.01750000  0.37500000  1.0
  H  H41  1  0.25909000  0.88290000  0.37123000  1.0
  H  H42  1  0.01049000  0.11089000  0.55266000  1.0
  H  H43  1  0.04934000  0.12291000  0.45357000  1.0
  H  H44  1  0.14576000  0.11828000  0.50017000  1.0
  H  H45  1  0.36250000  0.62441000  0.36923000  1.0
  H  H46  1  0.42640000  0.49131000  0.35844000  1.0
  H  H47  1  0.35362000  0.47831000  0.59406000  1.0
  H  H48  1  0.29740000  0.60932000  0.59420000  1.0
  H  H49  1  0.40380000  0.37311000  0.43448000  1.0
  H  H50  1  0.37212000  0.37154000  0.53317000  1.0
  H  H51  1  0.51091000  0.36466000  0.47308000  1.0
  H  H52  1  0.64570000  0.59730000  0.86041000  1.0
  H  H53  1  0.56498000  0.60943000  0.99603000  1.0
  H  H54  1  0.68737000  0.37500000  0.01750000  1.0
  H  H55  1  0.75909000  0.37123000  0.88290000  1.0
  H  H56  1  0.55684000  0.45091000  0.12329000  1.0
  H  H57  1  0.50546000  0.54988000  0.11118000  1.0
  H  H58  1  0.64328000  0.50562000  0.11762000  1.0
  H  H59  1  0.86250000  0.36923000  0.62441000  1.0
  H  H60  1  0.92640000  0.35844000  0.49131000  1.0
  H  H61  1  0.85362000  0.59406000  0.47831000  1.0
  H  H62  1  0.79740000  0.59420000  0.60932000  1.0
  H  H63  1  0.86757000  0.53131000  0.37191000  1.0
  H  H64  1  0.90999000  0.43196000  0.37279000  1.0
  H  H65  1  0.00927000  0.47746000  0.36461000  1.0
  H  H66  1  0.60341000  0.90270000  0.63959000  1.0
  H  H67  1  0.67044000  0.89057000  0.50397000  1.0
  H  H68  1  0.57987000  0.12500000  0.48250000  1.0
  H  H69  1  0.51322000  0.12877000  0.61710000  1.0
  H  H70  1  0.62341000  0.99507000  0.37342000  1.0
  H  H71  1  0.76326000  0.99893000  0.37169000  1.0
  H  H72  1  0.35614000  0.13077000  0.87559000  1.0
  H  H73  1  0.27615000  0.14156000  0.00869000  1.0
  H  H74  1  0.42599000  0.90594000  0.02169000  1.0
  H  H75  1  0.50091000  0.90580000  0.89068000  1.0
  H  H76  1  0.27939000  0.96614000  0.12862000  1.0
  H  H77  1  0.21008000  0.06438000  0.12677000  1.0
  H  H78  1  0.34740000  0.02875000  0.13531000  1.0
  H  H79  1  0.35430000  0.40270000  0.13959000  1.0
  H  H80  1  0.43502000  0.39057000  0.00397000  1.0
  H  H81  1  0.31263000  0.62500000  0.98250000  1.0
  H  H82  1  0.24091000  0.62877000  0.11710000  1.0
  H  H83  1  0.36840000  0.54561000  0.87645000  1.0
  H  H84  1  0.41978000  0.44664000  0.88856000  1.0
  H  H85  1  0.50622000  0.50135000  0.88290000  1.0
  H  H86  1  0.13750000  0.63077000  0.37559000  1.0
  H  H87  1  0.07360000  0.64156000  0.50869000  1.0
  H  H88  1  0.14638000  0.40594000  0.52169000  1.0
  H  H89  1  0.20260000  0.40580000  0.39068000  1.0
  H  H90  1  0.05210000  0.47147000  0.63326000  1.0
  H  H91  1  0.00968000  0.57083000  0.63237000  1.0
  H  H92  1  0.15138000  0.51697000  0.62507000  1.0
  H  H93  1  0.39659000  0.09730000  0.36041000  1.0
  H  H94  1  0.32956000  0.10943000  0.49603000  1.0
  H  H95  1  0.42013000  0.87500000  0.51750000  1.0
  H  H96  1  0.48678000  0.87123000  0.38290000  1.0
  H  H97  1  0.23674000  0.00107000  0.62831000  1.0
  H  H98  1  0.37659000  0.00493000  0.62658000  1.0
  H  H99  1  0.64386000  0.86923000  0.12441000  1.0
  H  H100  1  0.72385000  0.85844000  0.99131000  1.0
  H  H101  1  0.57401000  0.09406000  0.97831000  1.0
  H  H102  1  0.49909000  0.09420000  0.10932000  1.0
  H  H103  1  0.65217000  0.02487000  0.86630000  1.0
  H  H104  1  0.72148000  0.92663000  0.86816000  1.0
  H  H105  1  0.78948000  0.98924000  0.87485000  1.0
  H  H106  1  0.89659000  0.36041000  0.09730000  1.0
  H  H107  1  0.82956000  0.49603000  0.10943000  1.0
  H  H108  1  0.75454000  0.61146000  0.05316000  1.0
  H  H109  1  0.79108000  0.62358000  0.95414000  1.0
  H  H110  1  0.14386000  0.12441000  0.86923000  1.0
  H  H111  1  0.22385000  0.99131000  0.85844000  1.0
  H  H112  1  0.07401000  0.97831000  0.09406000  1.0
  H  H113  1  0.99909000  0.10932000  0.09420000  1.0
  H  H114  1  0.21142000  0.86754000  0.92967000  1.0
  H  H115  1  0.15770000  0.86682000  0.02909000  1.0
  H  H116  1  0.29400000  0.87494000  0.98198000  1.0
  H  H117  1  0.85430000  0.13959000  0.40270000  1.0
  H  H118  1  0.93502000  0.00397000  0.39057000  1.0
  H  H119  1  0.81263000  0.98250000  0.62500000  1.0
  H  H120  1  0.74091000  0.11710000  0.62877000  1.0
  H  H121  1  0.91228000  0.88818000  0.44930000  1.0
  H  H122  1  0.87343000  0.87617000  0.54840000  1.0
  H  H123  1  0.00870000  0.88356000  0.49590000  1.0
  H  H124  1  0.63750000  0.37559000  0.63077000  1.0
  H  H125  1  0.57360000  0.50869000  0.64156000  1.0
  H  H126  1  0.64638000  0.52169000  0.40594000  1.0
  H  H127  1  0.70260000  0.39068000  0.40580000  1.0
  H  H128  1  0.51423000  0.63200000  0.57268000  1.0
  H  H129  1  0.54591000  0.63357000  0.47399000  1.0
  H  H130  1  0.65302000  0.62512000  0.51260000  1.0
  H  H131  1  0.92013000  0.51750000  0.87500000  1.0
  H  H132  1  0.98678000  0.38290000  0.87123000  1.0
  H  H133  1  0.89030000  0.61705000  0.99910000  1.0
  C  C134  1  0.53070000  0.61950000  0.75390000  1.0
  C  C135  1  0.76430000  0.73210000  0.15590000  1.0
  C  C136  1  0.51160000  0.73120000  0.34440000  1.0
  C  C137  1  0.22970000  0.73770000  0.87830000  1.0
  C  C138  1  0.09860000  0.60270000  0.95250000  1.0
  C  C139  1  0.13750000  0.52750000  0.94570000  1.0
  C  C140  1  0.13450000  0.48420000  0.00660000  1.0
  C  C141  1  0.08710000  0.51690000  0.07350000  1.0
  C  C142  1  0.05040000  0.58990000  0.07530000  1.0
  C  C143  1  0.17740000  0.40280000  0.99960000  1.0
  C  C144  1  0.86910000  0.91220000  0.08100000  1.0
  C  C145  1  0.82450000  0.98480000  0.08680000  1.0
  C  C146  1  0.84070000  0.02820000  0.02300000  1.0
  C  C147  1  0.90660000  0.99080000  0.95920000  1.0
  C  C148  1  0.94880000  0.91820000  0.95840000  1.0
  C  C149  1  0.79120000  0.11000000  0.02040000  1.0
  C  C150  1  0.40410000  0.88050000  0.74610000  1.0
  C  C151  1  0.15230000  0.76790000  0.34410000  1.0
  C  C152  1  0.08720000  0.76880000  0.15560000  1.0
  C  C153  1  0.34570000  0.76230000  0.62170000  1.0
  C  C154  1  0.15380000  0.89730000  0.54750000  1.0
  C  C155  1  0.11070000  0.97250000  0.55430000  1.0
  C  C156  1  0.12530000  0.01580000  0.49340000  1.0
  C  C157  1  0.17750000  0.98310000  0.42650000  1.0
  C  C158  1  0.21560000  0.91010000  0.42470000  1.0
  C  C159  1  0.07980000  0.09720000  0.50040000  1.0
  C  C160  1  0.36230000  0.58780000  0.41900000  1.0
  C  C161  1  0.39610000  0.51520000  0.41320000  1.0
  C  C162  1  0.39190000  0.47180000  0.47700000  1.0
  C  C163  1  0.35660000  0.50920000  0.54080000  1.0
  C  C164  1  0.32540000  0.58180000  0.54160000  1.0
  C  C165  1  0.42160000  0.39000000  0.47960000  1.0
  C  C166  1  0.90410000  0.74610000  0.88050000  1.0
  C  C167  1  0.65230000  0.34410000  0.76790000  1.0
  C  C168  1  0.58720000  0.15560000  0.76880000  1.0
  C  C169  1  0.84570000  0.62170000  0.76230000  1.0
  C  C170  1  0.65380000  0.54750000  0.89730000  1.0
  C  C171  1  0.61070000  0.55430000  0.97250000  1.0
  C  C172  1  0.62530000  0.49340000  0.01580000  1.0
  C  C173  1  0.67750000  0.42650000  0.98310000  1.0
  C  C174  1  0.71560000  0.42470000  0.91010000  1.0
  C  C175  1  0.57980000  0.50040000  0.09720000  1.0
  C  C176  1  0.86230000  0.41900000  0.58780000  1.0
  C  C177  1  0.89610000  0.41320000  0.51520000  1.0
  C  C178  1  0.89190000  0.47700000  0.47180000  1.0
  C  C179  1  0.85660000  0.54080000  0.50920000  1.0
  C  C180  1  0.82540000  0.54160000  0.58180000  1.0
  C  C181  1  0.92160000  0.47960000  0.39000000  1.0
  C  C182  1  0.03070000  0.75390000  0.61950000  1.0
  C  C183  1  0.26430000  0.15590000  0.73210000  1.0
  C  C184  1  0.01160000  0.34440000  0.73120000  1.0
  C  C185  1  0.72970000  0.87830000  0.73770000  1.0
  C  C186  1  0.59860000  0.95250000  0.60270000  1.0
  C  C187  1  0.63750000  0.94570000  0.52750000  1.0
  C  C188  1  0.63450000  0.00660000  0.48420000  1.0
  C  C189  1  0.58710000  0.07350000  0.51690000  1.0
  C  C190  1  0.55040000  0.07530000  0.58990000  1.0
  C  C191  1  0.67740000  0.99960000  0.40280000  1.0
  C  C192  1  0.36910000  0.08100000  0.91220000  1.0
  C  C193  1  0.32450000  0.08680000  0.98480000  1.0
  C  C194  1  0.34070000  0.02300000  0.02820000  1.0
  C  C195  1  0.40660000  0.95920000  0.99080000  1.0
  C  C196  1  0.44880000  0.95840000  0.91820000  1.0
  C  C197  1  0.29120000  0.02040000  0.11000000  1.0
  C  C198  1  0.09590000  0.25390000  0.11950000  1.0
  C  C199  1  0.34770000  0.65590000  0.23210000  1.0
  C  C200  1  0.41280000  0.84440000  0.23120000  1.0
  C  C201  1  0.15430000  0.37830000  0.23770000  1.0
  C  C202  1  0.34620000  0.45250000  0.10270000  1.0
  C  C203  1  0.38930000  0.44570000  0.02750000  1.0
  C  C204  1  0.37470000  0.50660000  0.98420000  1.0
  C  C205  1  0.32250000  0.57350000  0.01690000  1.0
  C  C206  1  0.28440000  0.57530000  0.08990000  1.0
  C  C207  1  0.42020000  0.49960000  0.90280000  1.0
  C  C208  1  0.13770000  0.58100000  0.41220000  1.0
  C  C209  1  0.10390000  0.58680000  0.48480000  1.0
  C  C210  1  0.10810000  0.52300000  0.52820000  1.0
  C  C211  1  0.14340000  0.45920000  0.49080000  1.0
  C  C212  1  0.17460000  0.45840000  0.41820000  1.0
  C  C213  1  0.07840000  0.52040000  0.61000000  1.0
  C  C214  1  0.96930000  0.24610000  0.38050000  1.0
  C  C215  1  0.73570000  0.84410000  0.26790000  1.0
  C  C216  1  0.98840000  0.65560000  0.26880000  1.0
  C  C217  1  0.27030000  0.12170000  0.26230000  1.0
  C  C218  1  0.40140000  0.04750000  0.39730000  1.0
  C  C219  1  0.36250000  0.05430000  0.47250000  1.0
  C  C220  1  0.36550000  0.99340000  0.51580000  1.0
  C  C221  1  0.41290000  0.92650000  0.48310000  1.0
  C  C222  1  0.44960000  0.92470000  0.41010000  1.0
  C  C223  1  0.32260000  0.00040000  0.59720000  1.0
  C  C224  1  0.63090000  0.91900000  0.08780000  1.0
  C  C225  1  0.67550000  0.91320000  0.01520000  1.0
  C  C226  1  0.65930000  0.97700000  0.97180000  1.0
  C  C227  1  0.59340000  0.04080000  0.00920000  1.0
  C  C228  1  0.55120000  0.04160000  0.08180000  1.0
  C  C229  1  0.70880000  0.97960000  0.89000000  1.0
  C  C230  1  0.46930000  0.38050000  0.24610000  1.0
  C  C231  1  0.23570000  0.26790000  0.84410000  1.0
  C  C232  1  0.48840000  0.26880000  0.65560000  1.0
  C  C233  1  0.77030000  0.26230000  0.12170000  1.0
  C  C234  1  0.90140000  0.39730000  0.04750000  1.0
  C  C235  1  0.86250000  0.47250000  0.05430000  1.0
  C  C236  1  0.86550000  0.51580000  0.99340000  1.0
  C  C237  1  0.91290000  0.48310000  0.92650000  1.0
  C  C238  1  0.94960000  0.41010000  0.92470000  1.0
  C  C239  1  0.82260000  0.59720000  0.00040000  1.0
  C  C240  1  0.13090000  0.08780000  0.91900000  1.0
  C  C241  1  0.17550000  0.01520000  0.91320000  1.0
  C  C242  1  0.15930000  0.97180000  0.97700000  1.0
  C  C243  1  0.09340000  0.00920000  0.04080000  1.0
  C  C244  1  0.05120000  0.08180000  0.04160000  1.0
  C  C245  1  0.20880000  0.89000000  0.97960000  1.0
  C  C246  1  0.59590000  0.11950000  0.25390000  1.0
  C  C247  1  0.84770000  0.23210000  0.65590000  1.0
  C  C248  1  0.91280000  0.23120000  0.84440000  1.0
  C  C249  1  0.65430000  0.23770000  0.37830000  1.0
  C  C250  1  0.84620000  0.10270000  0.45250000  1.0
  C  C251  1  0.88930000  0.02750000  0.44570000  1.0
  C  C252  1  0.87470000  0.98420000  0.50660000  1.0
  C  C253  1  0.82250000  0.01690000  0.57350000  1.0
  C  C254  1  0.78440000  0.08990000  0.57530000  1.0
  C  C255  1  0.92020000  0.90280000  0.49960000  1.0
  C  C256  1  0.63770000  0.41220000  0.58100000  1.0
  C  C257  1  0.60390000  0.48480000  0.58680000  1.0
  C  C258  1  0.60810000  0.52820000  0.52300000  1.0
  C  C259  1  0.64340000  0.49080000  0.45920000  1.0
  C  C260  1  0.67460000  0.41820000  0.45840000  1.0
  C  C261  1  0.57840000  0.61000000  0.52040000  1.0
  N  N262  1  0.60820000  0.57580000  0.73620000  1.0
  N  N263  1  0.83170000  0.73980000  0.10640000  1.0
  N  N264  1  0.43510000  0.73920000  0.39340000  1.0
  N  N265  1  0.15270000  0.75540000  0.92220000  1.0
  N  N266  1  0.05670000  0.63240000  0.01420000  1.0
  N  N267  1  0.92910000  0.87850000  0.01990000  1.0
  N  N268  1  0.42020000  0.92420000  0.76380000  1.0
  N  N269  1  0.17790000  0.76020000  0.39360000  1.0
  N  N270  1  0.06770000  0.76080000  0.10660000  1.0
  N  N271  1  0.33030000  0.74460000  0.57780000  1.0
  N  N272  1  0.20330000  0.86760000  0.48580000  1.0
  N  N273  1  0.32750000  0.62150000  0.48010000  1.0
  N  N274  1  0.92020000  0.76380000  0.92420000  1.0
  N  N275  1  0.67790000  0.39360000  0.76020000  1.0
  N  N276  1  0.56770000  0.10660000  0.76080000  1.0
  N  N277  1  0.83030000  0.57780000  0.74460000  1.0
  N  N278  1  0.70330000  0.48580000  0.86760000  1.0
  N  N279  1  0.82750000  0.48010000  0.62150000  1.0
  N  N280  1  0.10820000  0.73620000  0.57580000  1.0
  N  N281  1  0.33170000  0.10640000  0.73980000  1.0
  N  N282  1  0.93510000  0.39340000  0.73920000  1.0
  N  N283  1  0.65270000  0.92220000  0.75540000  1.0
  N  N284  1  0.55670000  0.01420000  0.63240000  1.0
  N  N285  1  0.42910000  0.01990000  0.87850000  1.0
  N  N286  1  0.07980000  0.23620000  0.07580000  1.0
  N  N287  1  0.32210000  0.60640000  0.23980000  1.0
  N  N288  1  0.43230000  0.89340000  0.23920000  1.0
  N  N289  1  0.16970000  0.42220000  0.25540000  1.0
  N  N290  1  0.29670000  0.51420000  0.13240000  1.0
  N  N291  1  0.17250000  0.51990000  0.37850000  1.0
  N  N292  1  0.89180000  0.26380000  0.42420000  1.0
  N  N293  1  0.66830000  0.89360000  0.26020000  1.0
  N  N294  1  0.06490000  0.60660000  0.26080000  1.0
  N  N295  1  0.34730000  0.07780000  0.24460000  1.0
  N  N296  1  0.44330000  0.98580000  0.36760000  1.0
  N  N297  1  0.57090000  0.98010000  0.12150000  1.0
  N  N298  1  0.39180000  0.42420000  0.26380000  1.0
  N  N299  1  0.16830000  0.26020000  0.89360000  1.0
  N  N300  1  0.56490000  0.26080000  0.60660000  1.0
  N  N301  1  0.84730000  0.24460000  0.07780000  1.0
  N  N302  1  0.94330000  0.36760000  0.98580000  1.0
  N  N303  1  0.07090000  0.12150000  0.98010000  1.0
  N  N304  1  0.57980000  0.07580000  0.23620000  1.0
  N  N305  1  0.82210000  0.23980000  0.60640000  1.0
  N  N306  1  0.93230000  0.23920000  0.89340000  1.0
  N  N307  1  0.66970000  0.25540000  0.42220000  1.0
  N  N308  1  0.79670000  0.13240000  0.51420000  1.0
  N  N309  1  0.67250000  0.37850000  0.51990000  1.0
