# generated using pymatgen
data_Zn3H14C26(NO3)4
_symmetry_space_group_name_H-M   'P 1'
_cell_length_a   15.17510000
_cell_length_b   15.17510000
_cell_length_c   22.56040000
_cell_angle_alpha   90.00000000
_cell_angle_beta   90.00000000
_cell_angle_gamma   90.00000000
_symmetry_Int_Tables_number   1
_chemical_formula_structural   Zn3H14C26(NO3)4
_chemical_formula_sum   'Zn12 H56 C104 N16 O48'
_cell_volume   5195.29148329
_cell_formula_units_Z   4
loop_
 _symmetry_equiv_pos_site_id
 _symmetry_equiv_pos_as_xyz
  1  'x, y, z'
loop_
 _atom_site_type_symbol
 _atom_site_label
 _atom_site_symmetry_multiplicity
 _atom_site_fract_x
 _atom_site_fract_y
 _atom_site_fract_z
 _atom_site_occupancy
  Zn  Zn0  1  0.75753000  0.66679000  0.85609000  1.0
  Zn  Zn1  1  0.24247000  0.33321000  0.35610000  1.0
  Zn  Zn2  1  0.83321000  0.25753000  0.60609000  1.0
  Zn  Zn3  1  0.16679000  0.74247000  0.10610000  1.0
  Zn  Zn4  1  0.74247000  0.16679000  0.89391000  1.0
  Zn  Zn5  1  0.25753000  0.83321000  0.39391000  1.0
  Zn  Zn6  1  0.66679000  0.75753000  0.14391000  1.0
  Zn  Zn7  1  0.33321000  0.24247000  0.64391000  1.0
  Zn  Zn8  1  0.72128000  0.72128000  0.00000000  1.0
  Zn  Zn9  1  0.27872000  0.27872000  0.50000000  1.0
  Zn  Zn10  1  0.77872000  0.22128000  0.75000000  1.0
  Zn  Zn11  1  0.22128000  0.77872000  0.25000000  1.0
  H  H12  1  0.99410000  0.74090000  0.03710000  1.0
  H  H13  1  0.03660000  0.63280000  0.87750000  1.0
  H  H14  1  0.18790000  0.62900000  0.89850000  1.0
  H  H15  1  0.32460000  0.63550000  0.92370000  1.0
  H  H16  1  0.46930000  0.64570000  0.95580000  1.0
  H  H17  1  0.37930000  0.73730000  0.11250000  1.0
  H  H18  1  0.56960000  0.79290000  0.90560000  1.0
  H  H19  1  0.00590000  0.25910000  0.53710000  1.0
  H  H20  1  0.96340000  0.36720000  0.37750000  1.0
  H  H21  1  0.81210000  0.37100000  0.39850000  1.0
  H  H22  1  0.67540000  0.36450000  0.42370000  1.0
  H  H23  1  0.53070000  0.35430000  0.45580000  1.0
  H  H24  1  0.62070000  0.26270000  0.61250000  1.0
  H  H25  1  0.43040000  0.20710000  0.40560000  1.0
  H  H26  1  0.75910000  0.49410000  0.78710000  1.0
  H  H27  1  0.86720000  0.53660000  0.62750000  1.0
  H  H28  1  0.87100000  0.68790000  0.64850000  1.0
  H  H29  1  0.86450000  0.82460000  0.67370000  1.0
  H  H30  1  0.85430000  0.96930000  0.70580000  1.0
  H  H31  1  0.76270000  0.87930000  0.86250000  1.0
  H  H32  1  0.70710000  0.06960000  0.65560000  1.0
  H  H33  1  0.24090000  0.50590000  0.28710000  1.0
  H  H34  1  0.13280000  0.46340000  0.12750000  1.0
  H  H35  1  0.12900000  0.31210000  0.14850000  1.0
  H  H36  1  0.13550000  0.17540000  0.17370000  1.0
  H  H37  1  0.14570000  0.03070000  0.20580000  1.0
  H  H38  1  0.23730000  0.12070000  0.36250000  1.0
  H  H39  1  0.29290000  0.93040000  0.15560000  1.0
  H  H40  1  0.50590000  0.24090000  0.71290000  1.0
  H  H41  1  0.46340000  0.13280000  0.87250000  1.0
  H  H42  1  0.31210000  0.12900000  0.85150000  1.0
  H  H43  1  0.17540000  0.13550000  0.82630000  1.0
  H  H44  1  0.03070000  0.14570000  0.79420000  1.0
  H  H45  1  0.12070000  0.23730000  0.63750000  1.0
  H  H46  1  0.93040000  0.29290000  0.84440000  1.0
  H  H47  1  0.49410000  0.75910000  0.21290000  1.0
  H  H48  1  0.53660000  0.86720000  0.37250000  1.0
  H  H49  1  0.68790000  0.87100000  0.35150000  1.0
  H  H50  1  0.82460000  0.86450000  0.32630000  1.0
  H  H51  1  0.96930000  0.85430000  0.29420000  1.0
  H  H52  1  0.87930000  0.76270000  0.13750000  1.0
  H  H53  1  0.06960000  0.70710000  0.34440000  1.0
  H  H54  1  0.74090000  0.99410000  0.96290000  1.0
  H  H55  1  0.63280000  0.03660000  0.12250000  1.0
  H  H56  1  0.62900000  0.18790000  0.10150000  1.0
  H  H57  1  0.63550000  0.32460000  0.07630000  1.0
  H  H58  1  0.64570000  0.46930000  0.04420000  1.0
  H  H59  1  0.73730000  0.37930000  0.88750000  1.0
  H  H60  1  0.79290000  0.56960000  0.09440000  1.0
  H  H61  1  0.25910000  0.00590000  0.46290000  1.0
  H  H62  1  0.36720000  0.96340000  0.62250000  1.0
  H  H63  1  0.37100000  0.81210000  0.60150000  1.0
  H  H64  1  0.36450000  0.67540000  0.57630000  1.0
  H  H65  1  0.35430000  0.53070000  0.54420000  1.0
  H  H66  1  0.26270000  0.62070000  0.38750000  1.0
  H  H67  1  0.20710000  0.43040000  0.59440000  1.0
  C  C68  1  0.03350000  0.71730000  0.00840000  1.0
  C  C69  1  0.99890000  0.68770000  0.95520000  1.0
  C  C70  1  0.05770000  0.65410000  0.91450000  1.0
  C  C71  1  0.14700000  0.65080000  0.92680000  1.0
  C  C72  1  0.17500000  0.68050000  0.98190000  1.0
  C  C73  1  0.26860000  0.68040000  0.99900000  1.0
  C  C74  1  0.33690000  0.65640000  0.96250000  1.0
  C  C75  1  0.42230000  0.66220000  0.98130000  1.0
  C  C76  1  0.43960000  0.69260000  0.03830000  1.0
  C  C77  1  0.36800000  0.71700000  0.07340000  1.0
  C  C78  1  0.90130000  0.69530000  0.94276000  1.0
  C  C79  1  0.53270000  0.71180000  0.05780000  1.0
  C  C80  1  0.61200000  0.75570000  0.88730000  1.0
  C  C81  1  0.96650000  0.28270000  0.50840000  1.0
  C  C82  1  0.00110000  0.31230000  0.45520000  1.0
  C  C83  1  0.94230000  0.34590000  0.41450000  1.0
  C  C84  1  0.85300000  0.34920000  0.42680000  1.0
  C  C85  1  0.82500000  0.31950000  0.48190000  1.0
  C  C86  1  0.73140000  0.31960000  0.49900000  1.0
  C  C87  1  0.66310000  0.34360000  0.46250000  1.0
  C  C88  1  0.57770000  0.33780000  0.48130000  1.0
  C  C89  1  0.56040000  0.30740000  0.53830000  1.0
  C  C90  1  0.63200000  0.28300000  0.57340000  1.0
  C  C91  1  0.09870000  0.30470000  0.44276000  1.0
  C  C92  1  0.46730000  0.28820000  0.55780000  1.0
  C  C93  1  0.38800000  0.24430000  0.38730000  1.0
  C  C94  1  0.78270000  0.53350000  0.75840000  1.0
  C  C95  1  0.81230000  0.49890000  0.70520000  1.0
  C  C96  1  0.84590000  0.55770000  0.66450000  1.0
  C  C97  1  0.84920000  0.64700000  0.67680000  1.0
  C  C98  1  0.81950000  0.67500000  0.73190000  1.0
  C  C99  1  0.81960000  0.76860000  0.74900000  1.0
  C  C100  1  0.84360000  0.83690000  0.71250000  1.0
  C  C101  1  0.83780000  0.92230000  0.73130000  1.0
  C  C102  1  0.80740000  0.93960000  0.78830000  1.0
  C  C103  1  0.78300000  0.86800000  0.82340000  1.0
  C  C104  1  0.80470000  0.40130000  0.69276000  1.0
  C  C105  1  0.78820000  0.03270000  0.80780000  1.0
  C  C106  1  0.74430000  0.11200000  0.63730000  1.0
  C  C107  1  0.21730000  0.46650000  0.25840000  1.0
  C  C108  1  0.18770000  0.50110000  0.20520000  1.0
  C  C109  1  0.15410000  0.44230000  0.16450000  1.0
  C  C110  1  0.15080000  0.35300000  0.17680000  1.0
  C  C111  1  0.18050000  0.32500000  0.23190000  1.0
  C  C112  1  0.18040000  0.23140000  0.24900000  1.0
  C  C113  1  0.15640000  0.16310000  0.21250000  1.0
  C  C114  1  0.16220000  0.07770000  0.23130000  1.0
  C  C115  1  0.19260000  0.06040000  0.28830000  1.0
  C  C116  1  0.21700000  0.13200000  0.32340000  1.0
  C  C117  1  0.19530000  0.59870000  0.19276000  1.0
  C  C118  1  0.21180000  0.96730000  0.30780000  1.0
  C  C119  1  0.25570000  0.88800000  0.13730000  1.0
  C  C120  1  0.46650000  0.21730000  0.74160000  1.0
  C  C121  1  0.50110000  0.18770000  0.79480000  1.0
  C  C122  1  0.44230000  0.15410000  0.83550000  1.0
  C  C123  1  0.35300000  0.15080000  0.82320000  1.0
  C  C124  1  0.32500000  0.18050000  0.76810000  1.0
  C  C125  1  0.23140000  0.18040000  0.75100000  1.0
  C  C126  1  0.16310000  0.15640000  0.78750000  1.0
  C  C127  1  0.07770000  0.16220000  0.76870000  1.0
  C  C128  1  0.06040000  0.19260000  0.71170000  1.0
  C  C129  1  0.13200000  0.21700000  0.67660000  1.0
  C  C130  1  0.59870000  0.19530000  0.80724000  1.0
  C  C131  1  0.96730000  0.21180000  0.69220000  1.0
  C  C132  1  0.88800000  0.25570000  0.86270000  1.0
  C  C133  1  0.53350000  0.78270000  0.24160000  1.0
  C  C134  1  0.49890000  0.81230000  0.29480000  1.0
  C  C135  1  0.55770000  0.84590000  0.33550000  1.0
  C  C136  1  0.64700000  0.84920000  0.32320000  1.0
  C  C137  1  0.67500000  0.81950000  0.26810000  1.0
  C  C138  1  0.76860000  0.81960000  0.25100000  1.0
  C  C139  1  0.83690000  0.84360000  0.28750000  1.0
  C  C140  1  0.92230000  0.83780000  0.26870000  1.0
  C  C141  1  0.93960000  0.80740000  0.21170000  1.0
  C  C142  1  0.86800000  0.78300000  0.17660000  1.0
  C  C143  1  0.40130000  0.80470000  0.30724000  1.0
  C  C144  1  0.03270000  0.78820000  0.19220000  1.0
  C  C145  1  0.11200000  0.74430000  0.36270000  1.0
  C  C146  1  0.71730000  0.03350000  0.99160000  1.0
  C  C147  1  0.68770000  0.99890000  0.04480000  1.0
  C  C148  1  0.65410000  0.05770000  0.08550000  1.0
  C  C149  1  0.65080000  0.14700000  0.07320000  1.0
  C  C150  1  0.68050000  0.17500000  0.01810000  1.0
  C  C151  1  0.68040000  0.26860000  0.00100000  1.0
  C  C152  1  0.65640000  0.33690000  0.03750000  1.0
  C  C153  1  0.66220000  0.42230000  0.01870000  1.0
  C  C154  1  0.69260000  0.43960000  0.96170000  1.0
  C  C155  1  0.71700000  0.36800000  0.92660000  1.0
  C  C156  1  0.69530000  0.90130000  0.05724000  1.0
  C  C157  1  0.71180000  0.53270000  0.94220000  1.0
  C  C158  1  0.75570000  0.61200000  0.11270000  1.0
  C  C159  1  0.28270000  0.96650000  0.49160000  1.0
  C  C160  1  0.31230000  0.00110000  0.54480000  1.0
  C  C161  1  0.34590000  0.94230000  0.58550000  1.0
  C  C162  1  0.34920000  0.85300000  0.57320000  1.0
  C  C163  1  0.31950000  0.82500000  0.51810000  1.0
  C  C164  1  0.31960000  0.73140000  0.50100000  1.0
  C  C165  1  0.34360000  0.66310000  0.53750000  1.0
  C  C166  1  0.33780000  0.57770000  0.51870000  1.0
  C  C167  1  0.30740000  0.56040000  0.46170000  1.0
  C  C168  1  0.28300000  0.63200000  0.42660000  1.0
  C  C169  1  0.30470000  0.09870000  0.55724000  1.0
  C  C170  1  0.28820000  0.46730000  0.44220000  1.0
  C  C171  1  0.24430000  0.38800000  0.61270000  1.0
  N  N172  1  0.11730000  0.71430000  0.02120000  1.0
  N  N173  1  0.28480000  0.71310000  0.05500000  1.0
  N  N174  1  0.88270000  0.28570000  0.52120000  1.0
  N  N175  1  0.71520000  0.28690000  0.55500000  1.0
  N  N176  1  0.78570000  0.61730000  0.77120000  1.0
  N  N177  1  0.78690000  0.78480000  0.80500000  1.0
  N  N178  1  0.21430000  0.38270000  0.27120000  1.0
  N  N179  1  0.21310000  0.21520000  0.30500000  1.0
  N  N180  1  0.38270000  0.21430000  0.72880000  1.0
  N  N181  1  0.21520000  0.21310000  0.69500000  1.0
  N  N182  1  0.61730000  0.78570000  0.22880000  1.0
  N  N183  1  0.78480000  0.78690000  0.19500000  1.0
  N  N184  1  0.71430000  0.11730000  0.97880000  1.0
  N  N185  1  0.71310000  0.28480000  0.94500000  1.0
  N  N186  1  0.28570000  0.88270000  0.47880000  1.0
  N  N187  1  0.28690000  0.71520000  0.44500000  1.0
  O  O188  1  0.85400000  0.72600000  0.98227000  1.0
  O  O189  1  0.87809000  0.66620000  0.89252000  1.0
  O  O190  1  0.58500000  0.72180000  0.01450000  1.0
  O  O191  1  0.54587000  0.71962000  0.11228000  1.0
  O  O192  1  0.68652000  0.74507000  0.91177000  1.0
  O  O193  1  0.59330000  0.71800000  0.83953000  1.0
  O  O194  1  0.14600000  0.27400000  0.48227000  1.0
  O  O195  1  0.12191000  0.33380000  0.39252000  1.0
  O  O196  1  0.41500000  0.27820000  0.51450000  1.0
  O  O197  1  0.45413000  0.28038000  0.61228000  1.0
  O  O198  1  0.31348000  0.25493000  0.41177000  1.0
  O  O199  1  0.40670000  0.28200000  0.33953000  1.0
  O  O200  1  0.77400000  0.35400000  0.73227000  1.0
  O  O201  1  0.83380000  0.37809000  0.64252000  1.0
  O  O202  1  0.77820000  0.08500000  0.76450000  1.0
  O  O203  1  0.78038000  0.04587000  0.86228000  1.0
  O  O204  1  0.75493000  0.18652000  0.66177000  1.0
  O  O205  1  0.78200000  0.09330000  0.58953000  1.0
  O  O206  1  0.22600000  0.64600000  0.23227000  1.0
  O  O207  1  0.16620000  0.62191000  0.14252000  1.0
  O  O208  1  0.22180000  0.91500000  0.26450000  1.0
  O  O209  1  0.21962000  0.95413000  0.36228000  1.0
  O  O210  1  0.24507000  0.81348000  0.16177000  1.0
  O  O211  1  0.21800000  0.90670000  0.08953000  1.0
  O  O212  1  0.64600000  0.22600000  0.76773000  1.0
  O  O213  1  0.62191000  0.16620000  0.85748000  1.0
  O  O214  1  0.91500000  0.22180000  0.73550000  1.0
  O  O215  1  0.95413000  0.21962000  0.63772000  1.0
  O  O216  1  0.81348000  0.24507000  0.83823000  1.0
  O  O217  1  0.90670000  0.21800000  0.91047000  1.0
  O  O218  1  0.35400000  0.77400000  0.26773000  1.0
  O  O219  1  0.37809000  0.83380000  0.35748000  1.0
  O  O220  1  0.08500000  0.77820000  0.23550000  1.0
  O  O221  1  0.04587000  0.78038000  0.13772000  1.0
  O  O222  1  0.18652000  0.75493000  0.33823000  1.0
  O  O223  1  0.09330000  0.78200000  0.41047000  1.0
  O  O224  1  0.72600000  0.85400000  0.01773000  1.0
  O  O225  1  0.66620000  0.87809000  0.10748000  1.0
  O  O226  1  0.72180000  0.58500000  0.98550000  1.0
  O  O227  1  0.71962000  0.54587000  0.88772000  1.0
  O  O228  1  0.74507000  0.68652000  0.08823000  1.0
  O  O229  1  0.71800000  0.59330000  0.16047000  1.0
  O  O230  1  0.27400000  0.14600000  0.51773000  1.0
  O  O231  1  0.33380000  0.12191000  0.60748000  1.0
  O  O232  1  0.27820000  0.41500000  0.48550000  1.0
  O  O233  1  0.28038000  0.45413000  0.38772000  1.0
  O  O234  1  0.25493000  0.31348000  0.58823000  1.0
  O  O235  1  0.28200000  0.40670000  0.66047000  1.0
