# generated using pymatgen
data_DyH3(C3O2)3
_symmetry_space_group_name_H-M   'P 1'
_cell_length_a   10.31310000
_cell_length_b   10.31310000
_cell_length_c   14.49500000
_cell_angle_alpha   90.00000000
_cell_angle_beta   90.00000000
_cell_angle_gamma   90.00000000
_symmetry_Int_Tables_number   1
_chemical_formula_structural   DyH3(C3O2)3
_chemical_formula_sum   'Dy4 H12 C36 O24'
_cell_volume   1541.68865819
_cell_formula_units_Z   4
loop_
 _symmetry_equiv_pos_site_id
 _symmetry_equiv_pos_as_xyz
  1  'x, y, z'
loop_
 _atom_site_type_symbol
 _atom_site_label
 _atom_site_symmetry_multiplicity
 _atom_site_fract_x
 _atom_site_fract_y
 _atom_site_fract_z
 _atom_site_occupancy
  Dy  Dy0  1  0.64911000  0.64911000  0.87500000  1.0
  Dy  Dy1  1  0.35089000  0.35089000  0.37500000  1.0
  Dy  Dy2  1  0.35089000  0.64911000  0.12500000  1.0
  Dy  Dy3  1  0.64911000  0.35089000  0.62500000  1.0
  H  H4  1  0.58270000  0.06050000  0.87470000  1.0
  H  H5  1  0.41730000  0.93950000  0.37470000  1.0
  H  H6  1  0.93950000  0.58270000  0.12470000  1.0
  H  H7  1  0.06050000  0.41730000  0.62470000  1.0
  H  H8  1  0.41730000  0.06050000  0.12530000  1.0
  H  H9  1  0.58270000  0.93950000  0.62530000  1.0
  H  H10  1  0.06050000  0.58270000  0.87530000  1.0
  H  H11  1  0.93950000  0.41730000  0.37530000  1.0
  H  H12  1  0.50000000  0.39810000  0.00000000  1.0
  H  H13  1  0.50000000  0.60190000  0.50000000  1.0
  H  H14  1  0.60190000  0.50000000  0.25000000  1.0
  H  H15  1  0.39810000  0.50000000  0.75000000  1.0
  C  C16  1  0.54800000  0.10560000  0.92440000  1.0
  C  C17  1  0.54450000  0.23900000  0.92270000  1.0
  C  C18  1  0.58970000  0.31620000  0.84000000  1.0
  C  C19  1  0.45200000  0.89440000  0.42440000  1.0
  C  C20  1  0.45550000  0.76100000  0.42270000  1.0
  C  C21  1  0.41030000  0.68380000  0.34000000  1.0
  C  C22  1  0.89440000  0.54800000  0.17440000  1.0
  C  C23  1  0.76100000  0.54450000  0.17270000  1.0
  C  C24  1  0.68380000  0.58970000  0.09000000  1.0
  C  C25  1  0.10560000  0.45200000  0.67440000  1.0
  C  C26  1  0.23900000  0.45550000  0.67270000  1.0
  C  C27  1  0.31620000  0.41030000  0.59000000  1.0
  C  C28  1  0.45200000  0.10560000  0.07560000  1.0
  C  C29  1  0.45550000  0.23900000  0.07730000  1.0
  C  C30  1  0.41030000  0.31620000  0.16000000  1.0
  C  C31  1  0.54800000  0.89440000  0.57560000  1.0
  C  C32  1  0.54450000  0.76100000  0.57730000  1.0
  C  C33  1  0.58970000  0.68380000  0.66000000  1.0
  C  C34  1  0.10560000  0.54800000  0.82560000  1.0
  C  C35  1  0.23900000  0.54450000  0.82730000  1.0
  C  C36  1  0.31620000  0.58970000  0.91000000  1.0
  C  C37  1  0.89440000  0.45200000  0.32560000  1.0
  C  C38  1  0.76100000  0.45550000  0.32730000  1.0
  C  C39  1  0.68380000  0.41030000  0.41000000  1.0
  C  C40  1  0.50000000  0.89250000  0.00000000  1.0
  C  C41  1  0.50000000  0.03770000  0.00000000  1.0
  C  C42  1  0.50000000  0.30790000  0.00000000  1.0
  C  C43  1  0.50000000  0.10750000  0.50000000  1.0
  C  C44  1  0.50000000  0.96230000  0.50000000  1.0
  C  C45  1  0.50000000  0.69210000  0.50000000  1.0
  C  C46  1  0.10750000  0.50000000  0.25000000  1.0
  C  C47  1  0.96230000  0.50000000  0.25000000  1.0
  C  C48  1  0.69210000  0.50000000  0.25000000  1.0
  C  C49  1  0.89250000  0.50000000  0.75000000  1.0
  C  C50  1  0.03770000  0.50000000  0.75000000  1.0
  C  C51  1  0.30790000  0.50000000  0.75000000  1.0
  O  O52  1  0.57130000  0.83530000  0.94110000  1.0
  O  O53  1  0.59720000  0.25720000  0.76520000  1.0
  O  O54  1  0.61240000  0.43100000  0.85030000  1.0
  O  O55  1  0.42870000  0.16470000  0.44110000  1.0
  O  O56  1  0.40280000  0.74280000  0.26520000  1.0
  O  O57  1  0.38760000  0.56900000  0.35030000  1.0
  O  O58  1  0.16470000  0.57130000  0.19110000  1.0
  O  O59  1  0.74280000  0.59720000  0.01520000  1.0
  O  O60  1  0.56900000  0.61240000  0.10030000  1.0
  O  O61  1  0.83530000  0.42870000  0.69110000  1.0
  O  O62  1  0.25720000  0.40280000  0.51520000  1.0
  O  O63  1  0.43100000  0.38760000  0.60030000  1.0
  O  O64  1  0.42870000  0.83530000  0.05890000  1.0
  O  O65  1  0.40280000  0.25720000  0.23480000  1.0
  O  O66  1  0.38760000  0.43100000  0.14970000  1.0
  O  O67  1  0.57130000  0.16470000  0.55890000  1.0
  O  O68  1  0.59720000  0.74280000  0.73480000  1.0
  O  O69  1  0.61240000  0.56900000  0.64970000  1.0
  O  O70  1  0.83530000  0.57130000  0.80890000  1.0
  O  O71  1  0.25720000  0.59720000  0.98480000  1.0
  O  O72  1  0.43100000  0.61240000  0.89970000  1.0
  O  O73  1  0.16470000  0.42870000  0.30890000  1.0
  O  O74  1  0.74280000  0.40280000  0.48480000  1.0
  O  O75  1  0.56900000  0.38760000  0.39970000  1.0
