# generated using pymatgen
data_Zn4H28C28N8O5
_symmetry_space_group_name_H-M   'P 1'
_cell_length_a   11.55850000
_cell_length_b   11.55850000
_cell_length_c   25.81900000
_cell_angle_alpha   90.00000000
_cell_angle_beta   90.00000000
_cell_angle_gamma   90.00000000
_symmetry_Int_Tables_number   1
_chemical_formula_structural   Zn4H28C28N8O5
_chemical_formula_sum   'Zn8 H56 C56 N16 O10'
_cell_volume   3449.39057357
_cell_formula_units_Z   2
loop_
 _symmetry_equiv_pos_site_id
 _symmetry_equiv_pos_as_xyz
  1  'x, y, z'
loop_
 _atom_site_type_symbol
 _atom_site_label
 _atom_site_symmetry_multiplicity
 _atom_site_fract_x
 _atom_site_fract_y
 _atom_site_fract_z
 _atom_site_occupancy
  Zn  Zn0  1  0.90122000  0.09878000  0.79186000  1.0
  Zn  Zn1  1  0.09878000  0.90122000  0.79186000  1.0
  Zn  Zn2  1  0.90122000  0.90122000  0.29186000  1.0
  Zn  Zn3  1  0.09878000  0.09878000  0.29186000  1.0
  Zn  Zn4  1  0.09878000  0.09878000  0.70814000  1.0
  Zn  Zn5  1  0.90122000  0.90122000  0.70814000  1.0
  Zn  Zn6  1  0.09878000  0.90122000  0.20814000  1.0
  Zn  Zn7  1  0.90122000  0.09878000  0.20814000  1.0
  H  H8  1  0.67930000  0.17610000  0.83970000  1.0
  H  H9  1  0.56200000  0.20970000  0.81040000  1.0
  H  H10  1  0.56290000  0.10550000  0.85120000  1.0
  H  H11  1  0.32070000  0.82390000  0.83970000  1.0
  H  H12  1  0.43800000  0.79030000  0.81040000  1.0
  H  H13  1  0.43710000  0.89450000  0.85120000  1.0
  H  H14  1  0.82390000  0.67930000  0.33970000  1.0
  H  H15  1  0.79030000  0.56200000  0.31040000  1.0
  H  H16  1  0.89450000  0.56290000  0.35120000  1.0
  H  H17  1  0.17610000  0.32070000  0.33970000  1.0
  H  H18  1  0.20970000  0.43800000  0.31040000  1.0
  H  H19  1  0.10550000  0.43710000  0.35120000  1.0
  H  H20  1  0.32070000  0.17610000  0.66030000  1.0
  H  H21  1  0.43800000  0.20970000  0.68960000  1.0
  H  H22  1  0.43710000  0.10550000  0.64880000  1.0
  H  H23  1  0.67930000  0.82390000  0.66030000  1.0
  H  H24  1  0.56200000  0.79030000  0.68960000  1.0
  H  H25  1  0.56290000  0.89450000  0.64880000  1.0
  H  H26  1  0.17610000  0.67930000  0.16030000  1.0
  H  H27  1  0.20970000  0.56200000  0.18960000  1.0
  H  H28  1  0.10550000  0.56290000  0.14880000  1.0
  H  H29  1  0.82390000  0.32070000  0.16030000  1.0
  H  H30  1  0.79030000  0.43800000  0.18960000  1.0
  H  H31  1  0.89450000  0.43710000  0.14880000  1.0
  H  H32  1  0.32070000  0.82390000  0.16030000  1.0
  H  H33  1  0.43800000  0.79030000  0.18960000  1.0
  H  H34  1  0.43710000  0.89450000  0.14880000  1.0
  H  H35  1  0.67930000  0.17610000  0.16030000  1.0
  H  H36  1  0.56200000  0.20970000  0.18960000  1.0
  H  H37  1  0.56290000  0.10550000  0.14880000  1.0
  H  H38  1  0.17610000  0.32070000  0.66030000  1.0
  H  H39  1  0.20970000  0.43800000  0.68960000  1.0
  H  H40  1  0.10550000  0.43710000  0.64880000  1.0
  H  H41  1  0.82390000  0.67930000  0.66030000  1.0
  H  H42  1  0.79030000  0.56200000  0.68960000  1.0
  H  H43  1  0.89450000  0.56290000  0.64880000  1.0
  H  H44  1  0.67930000  0.82390000  0.33970000  1.0
  H  H45  1  0.56200000  0.79030000  0.31040000  1.0
  H  H46  1  0.56290000  0.89450000  0.35120000  1.0
  H  H47  1  0.32070000  0.17610000  0.33970000  1.0
  H  H48  1  0.43800000  0.20970000  0.31040000  1.0
  H  H49  1  0.43710000  0.10550000  0.35120000  1.0
  H  H50  1  0.82390000  0.32070000  0.83970000  1.0
  H  H51  1  0.79030000  0.43800000  0.81040000  1.0
  H  H52  1  0.89450000  0.43710000  0.85120000  1.0
  H  H53  1  0.17610000  0.67930000  0.83970000  1.0
  H  H54  1  0.20970000  0.56200000  0.81040000  1.0
  H  H55  1  0.10550000  0.56290000  0.85120000  1.0
  H  H56  1  0.87630000  0.12370000  0.95560000  1.0
  H  H57  1  0.12370000  0.87630000  0.95560000  1.0
  H  H58  1  0.87630000  0.87630000  0.45560000  1.0
  H  H59  1  0.12370000  0.12370000  0.45560000  1.0
  H  H60  1  0.12370000  0.12370000  0.54440000  1.0
  H  H61  1  0.87630000  0.87630000  0.54440000  1.0
  H  H62  1  0.12370000  0.87630000  0.04440000  1.0
  H  H63  1  0.87630000  0.12370000  0.04440000  1.0
  C  C64  1  0.63680000  0.06330000  0.78219000  1.0
  C  C65  1  0.60780000  0.14570000  0.82450000  1.0
  C  C66  1  0.36320000  0.93670000  0.78219000  1.0
  C  C67  1  0.39220000  0.85430000  0.82450000  1.0
  C  C68  1  0.93670000  0.63680000  0.28219000  1.0
  C  C69  1  0.85430000  0.60780000  0.32450000  1.0
  C  C70  1  0.06330000  0.36320000  0.28219000  1.0
  C  C71  1  0.14570000  0.39220000  0.32450000  1.0
  C  C72  1  0.36320000  0.06330000  0.71781000  1.0
  C  C73  1  0.39220000  0.14570000  0.67550000  1.0
  C  C74  1  0.63680000  0.93670000  0.71781000  1.0
  C  C75  1  0.60780000  0.85430000  0.67550000  1.0
  C  C76  1  0.06330000  0.63680000  0.21781000  1.0
  C  C77  1  0.14570000  0.60780000  0.17550000  1.0
  C  C78  1  0.93670000  0.36320000  0.21781000  1.0
  C  C79  1  0.85430000  0.39220000  0.17550000  1.0
  C  C80  1  0.36320000  0.93670000  0.21781000  1.0
  C  C81  1  0.39220000  0.85430000  0.17550000  1.0
  C  C82  1  0.63680000  0.06330000  0.21781000  1.0
  C  C83  1  0.60780000  0.14570000  0.17550000  1.0
  C  C84  1  0.06330000  0.36320000  0.71781000  1.0
  C  C85  1  0.14570000  0.39220000  0.67550000  1.0
  C  C86  1  0.93670000  0.63680000  0.71781000  1.0
  C  C87  1  0.85430000  0.60780000  0.67550000  1.0
  C  C88  1  0.63680000  0.93670000  0.28219000  1.0
  C  C89  1  0.60780000  0.85430000  0.32450000  1.0
  C  C90  1  0.36320000  0.06330000  0.28219000  1.0
  C  C91  1  0.39220000  0.14570000  0.32450000  1.0
  C  C92  1  0.93670000  0.36320000  0.78219000  1.0
  C  C93  1  0.85430000  0.39220000  0.82450000  1.0
  C  C94  1  0.06330000  0.63680000  0.78219000  1.0
  C  C95  1  0.14570000  0.60780000  0.82450000  1.0
  C  C96  1  0.92820000  0.07180000  0.97390000  1.0
  C  C97  1  0.07180000  0.92820000  0.97390000  1.0
  C  C98  1  0.92820000  0.92820000  0.47390000  1.0
  C  C99  1  0.07180000  0.07180000  0.47390000  1.0
  C  C100  1  0.07180000  0.07180000  0.52610000  1.0
  C  C101  1  0.92820000  0.92820000  0.52610000  1.0
  C  C102  1  0.07180000  0.92820000  0.02610000  1.0
  C  C103  1  0.92820000  0.07180000  0.02610000  1.0
  C  C104  1  0.00000000  0.00000000  0.88820000  1.0
  C  C105  1  0.00000000  0.00000000  0.94550000  1.0
  C  C106  1  0.00000000  0.00000000  0.38820000  1.0
  C  C107  1  0.00000000  0.00000000  0.44550000  1.0
  C  C108  1  0.00000000  0.00000000  0.61180000  1.0
  C  C109  1  0.00000000  0.00000000  0.55450000  1.0
  C  C110  1  0.00000000  0.00000000  0.11180000  1.0
  C  C111  1  0.00000000  0.00000000  0.05450000  1.0
  C  C112  1  0.56380000  0.00000000  0.75000000  1.0
  C  C113  1  0.43620000  0.00000000  0.75000000  1.0
  C  C114  1  0.00000000  0.56380000  0.25000000  1.0
  C  C115  1  0.00000000  0.43620000  0.25000000  1.0
  C  C116  1  0.43620000  0.00000000  0.25000000  1.0
  C  C117  1  0.56380000  0.00000000  0.25000000  1.0
  C  C118  1  0.00000000  0.43620000  0.75000000  1.0
  C  C119  1  0.00000000  0.56380000  0.75000000  1.0
  N  N120  1  0.74760000  0.03950000  0.77000000  1.0
  N  N121  1  0.25240000  0.96050000  0.77000000  1.0
  N  N122  1  0.96050000  0.74760000  0.27000000  1.0
  N  N123  1  0.03950000  0.25240000  0.27000000  1.0
  N  N124  1  0.25240000  0.03950000  0.73000000  1.0
  N  N125  1  0.74760000  0.96050000  0.73000000  1.0
  N  N126  1  0.03950000  0.74760000  0.23000000  1.0
  N  N127  1  0.96050000  0.25240000  0.23000000  1.0
  N  N128  1  0.25240000  0.96050000  0.23000000  1.0
  N  N129  1  0.74760000  0.03950000  0.23000000  1.0
  N  N130  1  0.03950000  0.25240000  0.73000000  1.0
  N  N131  1  0.96050000  0.74760000  0.73000000  1.0
  N  N132  1  0.74760000  0.96050000  0.27000000  1.0
  N  N133  1  0.25240000  0.03950000  0.27000000  1.0
  N  N134  1  0.96050000  0.25240000  0.77000000  1.0
  N  N135  1  0.03950000  0.74760000  0.77000000  1.0
  O  O136  1  0.93080000  0.06920000  0.86526000  1.0
  O  O137  1  0.06920000  0.93080000  0.86526000  1.0
  O  O138  1  0.93080000  0.93080000  0.36526000  1.0
  O  O139  1  0.06920000  0.06920000  0.36526000  1.0
  O  O140  1  0.06920000  0.06920000  0.63474000  1.0
  O  O141  1  0.93080000  0.93080000  0.63474000  1.0
  O  O142  1  0.06920000  0.93080000  0.13474000  1.0
  O  O143  1  0.93080000  0.06920000  0.13474000  1.0
  O  O144  1  0.00000000  0.00000000  0.75000000  1.0
  O  O145  1  0.00000000  0.00000000  0.25000000  1.0
