# generated using pymatgen
data_Ce2H8C8SO16
_symmetry_space_group_name_H-M   'P 1'
_cell_length_a   21.96000000
_cell_length_b   7.65500000
_cell_length_c   6.16700000
_cell_angle_alpha   90.00000000
_cell_angle_beta   91.47000000
_cell_angle_gamma   90.00000000
_symmetry_Int_Tables_number   1
_chemical_formula_structural   Ce2H8C8SO16
_chemical_formula_sum   'Ce4 H16 C16 S2 O32'
_cell_volume   1036.35495185
_cell_formula_units_Z   2
loop_
 _symmetry_equiv_pos_site_id
 _symmetry_equiv_pos_as_xyz
  1  'x, y, z'
loop_
 _atom_site_type_symbol
 _atom_site_label
 _atom_site_symmetry_multiplicity
 _atom_site_fract_x
 _atom_site_fract_y
 _atom_site_fract_z
 _atom_site_occupancy
  Ce  Ce0  1  0.64534000  0.25424000  0.05018000  1.0
  Ce  Ce1  1  0.14534000  0.75424000  0.05018000  1.0
  Ce  Ce2  1  0.35466000  0.25424000  0.94982000  1.0
  Ce  Ce3  1  0.85466000  0.75424000  0.94982000  1.0
  H  H4  1  0.60660000  0.88470000  0.94410000  1.0
  H  H5  1  0.75980000  0.98030000  0.80000000  1.0
  H  H6  1  0.61730000  0.82370000  0.62980000  1.0
  H  H7  1  0.71220000  0.72840000  0.54640000  1.0
  H  H8  1  0.10660000  0.38470000  0.94410000  1.0
  H  H9  1  0.25980000  0.48030000  0.80000000  1.0
  H  H10  1  0.11730000  0.32370000  0.62980000  1.0
  H  H11  1  0.21220000  0.22840000  0.54640000  1.0
  H  H12  1  0.39340000  0.88470000  0.05590000  1.0
  H  H13  1  0.24020000  0.98030000  0.20000000  1.0
  H  H14  1  0.38270000  0.82370000  0.37020000  1.0
  H  H15  1  0.28780000  0.72840000  0.45360000  1.0
  H  H16  1  0.89340000  0.38470000  0.05590000  1.0
  H  H17  1  0.74020000  0.48030000  0.20000000  1.0
  H  H18  1  0.88270000  0.32370000  0.37020000  1.0
  H  H19  1  0.78780000  0.22840000  0.45360000  1.0
  C  C20  1  0.65570000  0.06120000  0.55490000  1.0
  C  C21  1  0.65090000  0.89490000  0.68870000  1.0
  C  C22  1  0.71000000  0.78670000  0.68740000  1.0
  C  C23  1  0.70730000  0.64690000  0.86220000  1.0
  C  C24  1  0.15570000  0.56120000  0.55490000  1.0
  C  C25  1  0.15090000  0.39490000  0.68870000  1.0
  C  C26  1  0.21000000  0.28670000  0.68740000  1.0
  C  C27  1  0.20730000  0.14690000  0.86220000  1.0
  C  C28  1  0.34430000  0.06120000  0.44510000  1.0
  C  C29  1  0.34910000  0.89490000  0.31130000  1.0
  C  C30  1  0.29000000  0.78670000  0.31260000  1.0
  C  C31  1  0.29270000  0.64690000  0.13780000  1.0
  C  C32  1  0.84430000  0.56120000  0.44510000  1.0
  C  C33  1  0.84910000  0.39490000  0.31130000  1.0
  C  C34  1  0.79000000  0.28670000  0.31260000  1.0
  C  C35  1  0.79270000  0.14690000  0.13780000  1.0
  S  S36  1  0.50000000  0.25470000  0.00000000  1.0
  S  S37  1  0.00000000  0.75470000  0.00000000  1.0
  O  O38  1  0.54406000  0.36220000  0.88560000  1.0
  O  O39  1  0.53758000  0.14450000  0.14830000  1.0
  O  O40  1  0.65551000  0.20370000  0.65350000  1.0
  O  O41  1  0.65939000  0.04520000  0.35320000  1.0
  O  O42  1  0.63765000  0.94460000  0.90550000  1.0
  O  O43  1  0.76297000  0.89200000  0.71720000  1.0
  O  O44  1  0.66438000  0.53980000  0.86230000  1.0
  O  O45  1  0.74996000  0.64770000  0.00550000  1.0
  O  O46  1  0.04406000  0.86220000  0.88560000  1.0
  O  O47  1  0.03758000  0.64450000  0.14830000  1.0
  O  O48  1  0.15551000  0.70370000  0.65350000  1.0
  O  O49  1  0.15939000  0.54520000  0.35320000  1.0
  O  O50  1  0.13765000  0.44460000  0.90550000  1.0
  O  O51  1  0.26297000  0.39200000  0.71720000  1.0
  O  O52  1  0.16438000  0.03980000  0.86230000  1.0
  O  O53  1  0.24996000  0.14770000  0.00550000  1.0
  O  O54  1  0.45594000  0.36220000  0.11440000  1.0
  O  O55  1  0.46242000  0.14450000  0.85170000  1.0
  O  O56  1  0.34449000  0.20370000  0.34650000  1.0
  O  O57  1  0.34061000  0.04520000  0.64680000  1.0
  O  O58  1  0.36235000  0.94460000  0.09450000  1.0
  O  O59  1  0.23703000  0.89200000  0.28280000  1.0
  O  O60  1  0.33562000  0.53980000  0.13770000  1.0
  O  O61  1  0.25004000  0.64770000  0.99450000  1.0
  O  O62  1  0.95594000  0.86220000  0.11440000  1.0
  O  O63  1  0.96242000  0.64450000  0.85170000  1.0
  O  O64  1  0.84449000  0.70370000  0.34650000  1.0
  O  O65  1  0.84061000  0.54520000  0.64680000  1.0
  O  O66  1  0.86235000  0.44460000  0.09450000  1.0
  O  O67  1  0.73703000  0.39200000  0.28280000  1.0
  O  O68  1  0.83562000  0.03980000  0.13770000  1.0
  O  O69  1  0.75004000  0.14770000  0.99450000  1.0
