# generated using pymatgen
data_V2CuH12C15N3O4
_symmetry_space_group_name_H-M   'P 1'
_cell_length_a   11.32730000
_cell_length_b   11.57440000
_cell_length_c   16.24340000
_cell_angle_alpha   105.50500000
_cell_angle_beta   110.40600000
_cell_angle_gamma   90.00000000
_symmetry_Int_Tables_number   1
_chemical_formula_structural   V2CuH12C15N3O4
_chemical_formula_sum   'V8 Cu4 H48 C60 N12 O16'
_cell_volume   1913.06589580
_cell_formula_units_Z   4
loop_
 _symmetry_equiv_pos_site_id
 _symmetry_equiv_pos_as_xyz
  1  'x, y, z'
loop_
 _atom_site_type_symbol
 _atom_site_label
 _atom_site_symmetry_multiplicity
 _atom_site_fract_x
 _atom_site_fract_y
 _atom_site_fract_z
 _atom_site_occupancy
  V  V0  1  0.76421000  0.06031000  0.71038000  1.0
  V  V1  1  0.05383000  0.43969000  0.28962000  1.0
  V  V2  1  0.94617000  0.56031000  0.71038000  1.0
  V  V3  1  0.80301000  0.81828000  0.78482000  1.0
  V  V4  1  0.19699000  0.18172000  0.21518000  1.0
  V  V5  1  0.98181000  0.31828000  0.78482000  1.0
  V  V6  1  0.23579000  0.93969000  0.28962000  1.0
  V  V7  1  0.01819000  0.68172000  0.21518000  1.0
  Cu  Cu8  1  0.00000000  0.00000000  0.00000000  1.0
  Cu  Cu9  1  0.00000000  0.50000000  0.00000000  1.0
  Cu  Cu10  1  0.00000000  0.50000000  0.50000000  1.0
  Cu  Cu11  1  0.50000000  0.00000000  0.50000000  1.0
  H  H12  1  0.68760000  0.80820000  0.55580000  1.0
  H  H13  1  0.21130000  0.80960000  0.77180000  1.0
  H  H14  1  0.31860000  0.55420000  0.40980000  1.0
  H  H15  1  0.23540000  0.68300000  0.12640000  1.0
  H  H16  1  0.72930000  0.36400000  0.41660000  1.0
  H  H17  1  0.43950000  0.69040000  0.22820000  1.0
  H  H18  1  0.80680000  0.66980000  0.93800000  1.0
  H  H19  1  0.92900000  0.75090000  0.60040000  1.0
  H  H20  1  0.31270000  0.13600000  0.58340000  1.0
  H  H21  1  0.50450000  0.13870000  0.36020000  1.0
  H  H22  1  0.78130000  0.86040000  0.31140000  1.0
  H  H23  1  0.34210000  0.35130000  0.74240000  1.0
  H  H24  1  0.40030000  0.85130000  0.74240000  1.0
  H  H25  1  0.14430000  0.36130000  0.63980000  1.0
  H  H26  1  0.07100000  0.24910000  0.39960000  1.0
  H  H27  1  0.39340000  0.32570000  0.15960000  1.0
  H  H28  1  0.19320000  0.33020000  0.06200000  1.0
  H  H29  1  0.76620000  0.82570000  0.15960000  1.0
  H  H30  1  0.68730000  0.86400000  0.41660000  1.0
  H  H31  1  0.60660000  0.67430000  0.84040000  1.0
  H  H32  1  0.78870000  0.19040000  0.22820000  1.0
  H  H33  1  0.53010000  0.36040000  0.31140000  1.0
  H  H34  1  0.46990000  0.63960000  0.68860000  1.0
  H  H35  1  0.30990000  0.38580000  0.43100000  1.0
  H  H36  1  0.12110000  0.88580000  0.43100000  1.0
  H  H37  1  0.65790000  0.64870000  0.25760000  1.0
  H  H38  1  0.90880000  0.94580000  0.59020000  1.0
  H  H39  1  0.69010000  0.61420000  0.56900000  1.0
  H  H40  1  0.27070000  0.63600000  0.58340000  1.0
  H  H41  1  0.09120000  0.05420000  0.40980000  1.0
  H  H42  1  0.59970000  0.14870000  0.25760000  1.0
  H  H43  1  0.13180000  0.69180000  0.44420000  1.0
  H  H44  1  0.89100000  0.18300000  0.12640000  1.0
  H  H45  1  0.85570000  0.63870000  0.36020000  1.0
  H  H46  1  0.31240000  0.19180000  0.44420000  1.0
  H  H47  1  0.32860000  0.74910000  0.39960000  1.0
  H  H48  1  0.13120000  0.16980000  0.93800000  1.0
  H  H49  1  0.21870000  0.13960000  0.68860000  1.0
  H  H50  1  0.56050000  0.30960000  0.77180000  1.0
  H  H51  1  0.10900000  0.81700000  0.87360000  1.0
  H  H52  1  0.49550000  0.86130000  0.63980000  1.0
  H  H53  1  0.23380000  0.17430000  0.84040000  1.0
  H  H54  1  0.76460000  0.31700000  0.87360000  1.0
  H  H55  1  0.86820000  0.30820000  0.55580000  1.0
  H  H56  1  0.87890000  0.11420000  0.56900000  1.0
  H  H57  1  0.86880000  0.83020000  0.06200000  1.0
  H  H58  1  0.67140000  0.25090000  0.60040000  1.0
  H  H59  1  0.68140000  0.44580000  0.59020000  1.0
  C  C60  1  0.08503000  0.74390000  0.47406000  1.0
  C  C61  1  0.27359000  0.07990000  0.67858000  1.0
  C  C62  1  0.38098000  0.91120000  0.71096000  1.0
  C  C63  1  0.56913000  0.50640000  0.27266000  1.0
  C  C64  1  0.49827000  0.43850000  0.50614000  1.0
  C  C65  1  0.14734000  0.09540000  0.90348000  1.0
  C  C66  1  0.71477000  0.42240000  0.38374000  1.0
  C  C67  1  0.40286000  0.72220000  0.43572000  1.0
  C  C68  1  0.91497000  0.25610000  0.52594000  1.0
  C  C69  1  0.03286000  0.22220000  0.43572000  1.0
  C  C70  1  0.72641000  0.92010000  0.32142000  1.0
  C  C71  1  0.38903000  0.24390000  0.47406000  1.0
  C  C72  1  0.79138000  0.90100000  0.15456000  1.0
  C  C73  1  0.43087000  0.49360000  0.72734000  1.0
  C  C74  1  0.59714000  0.27780000  0.56428000  1.0
  C  C75  1  0.56359000  0.08290000  0.35138000  1.0
  C  C76  1  0.44145000  0.50860000  0.20690000  1.0
  C  C77  1  0.73181000  0.39060000  0.86602000  1.0
  C  C78  1  0.78779000  0.58290000  0.35138000  1.0
  C  C79  1  0.39063000  0.61480000  0.19486000  1.0
  C  C80  1  0.80423000  0.11480000  0.19486000  1.0
  C  C81  1  0.61097000  0.75610000  0.52594000  1.0
  C  C82  1  0.40499000  0.57990000  0.67858000  1.0
  C  C83  1  0.60937000  0.38520000  0.80514000  1.0
  C  C84  1  0.50173000  0.56150000  0.49386000  1.0
  C  C85  1  0.43641000  0.91710000  0.64862000  1.0
  C  C86  1  0.24386000  0.40460000  0.09652000  1.0
  C  C87  1  0.23455000  0.99140000  0.79310000  1.0
  C  C88  1  0.96714000  0.77780000  0.56428000  1.0
  C  C89  1  0.38668000  0.36000000  0.46496000  1.0
  C  C90  1  0.61332000  0.64000000  0.53504000  1.0
  C  C91  1  0.60396000  0.39510000  0.55832000  1.0
  C  C92  1  0.86579000  0.10940000  0.13398000  1.0
  C  C93  1  0.66897000  0.92240000  0.38374000  1.0
  C  C94  1  0.85266000  0.90460000  0.09652000  1.0
  C  C95  1  0.29647000  0.99360000  0.72734000  1.0
  C  C96  1  0.99213000  0.06150000  0.49386000  1.0
  C  C97  1  0.33103000  0.07760000  0.61626000  1.0
  C  C98  1  0.21221000  0.41710000  0.64862000  1.0
  C  C99  1  0.07828000  0.86000000  0.46496000  1.0
  C  C100  1  0.95436000  0.89510000  0.55832000  1.0
  C  C101  1  0.92172000  0.14000000  0.53504000  1.0
  C  C102  1  0.75614000  0.59540000  0.90348000  1.0
  C  C103  1  0.00787000  0.93850000  0.50614000  1.0
  C  C104  1  0.26819000  0.60940000  0.13398000  1.0
  C  C105  1  0.28523000  0.57760000  0.61626000  1.0
  C  C106  1  0.59501000  0.42010000  0.32142000  1.0
  C  C107  1  0.36318000  0.40100000  0.15456000  1.0
  C  C108  1  0.55855000  0.49140000  0.79310000  1.0
  C  C109  1  0.67002000  0.58880000  0.28904000  1.0
  C  C110  1  0.76545000  0.00860000  0.20690000  1.0
  C  C111  1  0.70353000  0.00640000  0.27266000  1.0
  C  C112  1  0.20862000  0.09900000  0.84544000  1.0
  C  C113  1  0.19577000  0.88520000  0.80514000  1.0
  C  C114  1  0.32998000  0.41120000  0.71096000  1.0
  C  C115  1  0.13421000  0.89060000  0.86602000  1.0
  C  C116  1  0.61902000  0.08880000  0.28904000  1.0
  C  C117  1  0.04564000  0.10490000  0.44168000  1.0
  C  C118  1  0.63682000  0.59900000  0.84544000  1.0
  C  C119  1  0.39604000  0.60490000  0.44168000  1.0
  N  N120  1  0.10835000  0.99330000  0.91490000  1.0
  N  N121  1  0.19345000  0.50670000  0.08510000  1.0
  N  N122  1  0.49211000  0.20050000  0.52202000  1.0
  N  N123  1  0.18772000  0.49780000  0.59924000  1.0
  N  N124  1  0.02991000  0.70050000  0.52202000  1.0
  N  N125  1  0.58848000  0.00220000  0.40076000  1.0
  N  N126  1  0.97009000  0.29950000  0.47798000  1.0
  N  N127  1  0.81228000  0.50220000  0.40076000  1.0
  N  N128  1  0.41152000  0.99780000  0.59924000  1.0
  N  N129  1  0.50789000  0.79950000  0.47798000  1.0
  N  N130  1  0.89165000  0.00670000  0.08510000  1.0
  N  N131  1  0.80655000  0.49330000  0.91490000  1.0
  O  O132  1  0.88501000  0.17620000  0.73442000  1.0
  O  O133  1  0.92580000  0.52690000  0.59940000  1.0
  O  O134  1  0.12301000  0.13700000  0.10182000  1.0
  O  O135  1  0.11499000  0.82380000  0.26558000  1.0
  O  O136  1  0.02119000  0.36300000  0.89818000  1.0
  O  O137  1  0.10220000  0.57210000  0.26700000  1.0
  O  O138  1  0.07420000  0.47310000  0.40060000  1.0
  O  O139  1  0.87699000  0.86300000  0.89818000  1.0
  O  O140  1  0.89780000  0.42790000  0.73300000  1.0
  O  O141  1  0.15059000  0.32380000  0.26558000  1.0
  O  O142  1  0.83520000  0.92790000  0.73300000  1.0
  O  O143  1  0.97881000  0.63700000  0.10182000  1.0
  O  O144  1  0.67360000  0.02690000  0.59940000  1.0
  O  O145  1  0.16480000  0.07210000  0.26700000  1.0
  O  O146  1  0.84941000  0.67620000  0.73442000  1.0
  O  O147  1  0.32640000  0.97310000  0.40060000  1.0
