# generated using pymatgen
data_CdH10C10(N3O)2
_symmetry_space_group_name_H-M   'P 1'
_cell_length_a   22.92060000
_cell_length_b   7.70470000
_cell_length_c   19.32080000
_cell_angle_alpha   90.00000000
_cell_angle_beta   114.59600000
_cell_angle_gamma   90.00000000
_symmetry_Int_Tables_number   1
_chemical_formula_structural   CdH10C10(N3O)2
_chemical_formula_sum   'Cd8 H80 C80 N48 O16'
_cell_volume   3102.39702322
_cell_formula_units_Z   8
loop_
 _symmetry_equiv_pos_site_id
 _symmetry_equiv_pos_as_xyz
  1  'x, y, z'
loop_
 _atom_site_type_symbol
 _atom_site_label
 _atom_site_symmetry_multiplicity
 _atom_site_fract_x
 _atom_site_fract_y
 _atom_site_fract_z
 _atom_site_occupancy
  Cd  Cd0  1  0.24758000  0.28420000  0.27249000  1.0
  Cd  Cd1  1  0.74758000  0.78420000  0.27249000  1.0
  Cd  Cd2  1  0.75242000  0.28420000  0.22751000  1.0
  Cd  Cd3  1  0.25242000  0.78420000  0.22751000  1.0
  Cd  Cd4  1  0.75242000  0.71580000  0.72751000  1.0
  Cd  Cd5  1  0.25242000  0.21580000  0.72751000  1.0
  Cd  Cd6  1  0.24758000  0.71580000  0.77249000  1.0
  Cd  Cd7  1  0.74758000  0.21580000  0.77249000  1.0
  H  H8  1  0.24780000  0.36380000  0.10980000  1.0
  H  H9  1  0.25330000  0.95090000  0.98490000  1.0
  H  H10  1  0.38190000  0.23170000  0.43910000  1.0
  H  H11  1  0.40040000  0.74460000  0.38940000  1.0
  H  H12  1  0.47960000  0.84990000  0.52730000  1.0
  H  H13  1  0.46980000  0.04320000  0.54920000  1.0
  H  H14  1  0.10880000  0.21940000  0.29630000  1.0
  H  H15  1  0.10970000  0.72310000  0.25050000  1.0
  H  H16  1  0.02420000  0.03560000  0.31980000  1.0
  H  H17  1  0.02990000  0.83090000  0.31490000  1.0
  H  H18  1  0.74780000  0.86380000  0.10980000  1.0
  H  H19  1  0.75330000  0.45090000  0.98490000  1.0
  H  H20  1  0.88190000  0.73170000  0.43910000  1.0
  H  H21  1  0.90040000  0.24460000  0.38940000  1.0
  H  H22  1  0.97960000  0.34990000  0.52730000  1.0
  H  H23  1  0.96980000  0.54320000  0.54920000  1.0
  H  H24  1  0.60880000  0.71940000  0.29630000  1.0
  H  H25  1  0.60970000  0.22310000  0.25050000  1.0
  H  H26  1  0.52420000  0.53560000  0.31980000  1.0
  H  H27  1  0.52990000  0.33090000  0.31490000  1.0
  H  H28  1  0.75220000  0.36380000  0.39020000  1.0
  H  H29  1  0.74670000  0.95090000  0.51510000  1.0
  H  H30  1  0.61810000  0.23170000  0.06090000  1.0
  H  H31  1  0.59960000  0.74460000  0.11060000  1.0
  H  H32  1  0.52040000  0.84990000  0.97270000  1.0
  H  H33  1  0.53020000  0.04320000  0.95080000  1.0
  H  H34  1  0.89120000  0.21940000  0.20370000  1.0
  H  H35  1  0.89030000  0.72310000  0.24950000  1.0
  H  H36  1  0.97580000  0.03560000  0.18020000  1.0
  H  H37  1  0.97010000  0.83090000  0.18510000  1.0
  H  H38  1  0.25220000  0.86380000  0.39020000  1.0
  H  H39  1  0.24670000  0.45090000  0.51510000  1.0
  H  H40  1  0.11810000  0.73170000  0.06090000  1.0
  H  H41  1  0.09960000  0.24460000  0.11060000  1.0
  H  H42  1  0.02040000  0.34990000  0.97270000  1.0
  H  H43  1  0.03020000  0.54320000  0.95080000  1.0
  H  H44  1  0.39120000  0.71940000  0.20370000  1.0
  H  H45  1  0.39030000  0.22310000  0.24950000  1.0
  H  H46  1  0.47580000  0.53560000  0.18020000  1.0
  H  H47  1  0.47010000  0.33090000  0.18510000  1.0
  H  H48  1  0.75220000  0.63620000  0.89020000  1.0
  H  H49  1  0.74670000  0.04910000  0.01510000  1.0
  H  H50  1  0.61810000  0.76830000  0.56090000  1.0
  H  H51  1  0.59960000  0.25540000  0.61060000  1.0
  H  H52  1  0.52040000  0.15010000  0.47270000  1.0
  H  H53  1  0.53020000  0.95680000  0.45080000  1.0
  H  H54  1  0.89120000  0.78060000  0.70370000  1.0
  H  H55  1  0.89030000  0.27690000  0.74950000  1.0
  H  H56  1  0.97580000  0.96440000  0.68020000  1.0
  H  H57  1  0.97010000  0.16910000  0.68510000  1.0
  H  H58  1  0.25220000  0.13620000  0.89020000  1.0
  H  H59  1  0.24670000  0.54910000  0.01510000  1.0
  H  H60  1  0.11810000  0.26830000  0.56090000  1.0
  H  H61  1  0.09960000  0.75540000  0.61060000  1.0
  H  H62  1  0.02040000  0.65010000  0.47270000  1.0
  H  H63  1  0.03020000  0.45680000  0.45080000  1.0
  H  H64  1  0.39120000  0.28060000  0.70370000  1.0
  H  H65  1  0.39030000  0.77690000  0.74950000  1.0
  H  H66  1  0.47580000  0.46440000  0.68020000  1.0
  H  H67  1  0.47010000  0.66910000  0.68510000  1.0
  H  H68  1  0.24780000  0.63620000  0.60980000  1.0
  H  H69  1  0.25330000  0.04910000  0.48490000  1.0
  H  H70  1  0.38190000  0.76830000  0.93910000  1.0
  H  H71  1  0.40040000  0.25540000  0.88940000  1.0
  H  H72  1  0.47960000  0.15010000  0.02730000  1.0
  H  H73  1  0.46980000  0.95680000  0.04920000  1.0
  H  H74  1  0.10880000  0.78060000  0.79630000  1.0
  H  H75  1  0.10970000  0.27690000  0.75050000  1.0
  H  H76  1  0.02420000  0.96440000  0.81980000  1.0
  H  H77  1  0.02990000  0.16910000  0.81490000  1.0
  H  H78  1  0.74780000  0.13620000  0.60980000  1.0
  H  H79  1  0.75330000  0.54910000  0.48490000  1.0
  H  H80  1  0.88190000  0.26830000  0.93910000  1.0
  H  H81  1  0.90040000  0.75540000  0.88940000  1.0
  H  H82  1  0.97960000  0.65010000  0.02730000  1.0
  H  H83  1  0.96980000  0.45680000  0.04920000  1.0
  H  H84  1  0.60880000  0.28060000  0.79630000  1.0
  H  H85  1  0.60970000  0.77690000  0.75050000  1.0
  H  H86  1  0.52420000  0.46440000  0.81980000  1.0
  H  H87  1  0.52990000  0.66910000  0.81490000  1.0
  C  C88  1  0.25129000  0.01800000  0.11836000  1.0
  C  C89  1  0.25072000  0.13790000  0.05730000  1.0
  C  C90  1  0.24870000  0.31750000  0.06520000  1.0
  C  C91  1  0.25200000  0.07160000  0.99125000  1.0
  C  C92  1  0.37493000  0.12460000  0.41360000  1.0
  C  C93  1  0.38510000  0.85880000  0.38650000  1.0
  C  C94  1  0.47250000  0.97020000  0.50910000  1.0
  C  C95  1  0.11980000  0.11160000  0.28230000  1.0
  C  C96  1  0.12038000  0.84160000  0.25750000  1.0
  C  C97  1  0.02840000  0.94050000  0.28850000  1.0
  C  C98  1  0.75129000  0.51800000  0.11836000  1.0
  C  C99  1  0.75072000  0.63790000  0.05730000  1.0
  C  C100  1  0.74870000  0.81750000  0.06520000  1.0
  C  C101  1  0.75200000  0.57160000  0.99125000  1.0
  C  C102  1  0.87493000  0.62460000  0.41360000  1.0
  C  C103  1  0.88510000  0.35880000  0.38650000  1.0
  C  C104  1  0.97250000  0.47020000  0.50910000  1.0
  C  C105  1  0.61980000  0.61160000  0.28230000  1.0
  C  C106  1  0.62038000  0.34160000  0.25750000  1.0
  C  C107  1  0.52840000  0.44050000  0.28850000  1.0
  C  C108  1  0.74871000  0.01800000  0.38164000  1.0
  C  C109  1  0.74928000  0.13790000  0.44270000  1.0
  C  C110  1  0.75130000  0.31750000  0.43480000  1.0
  C  C111  1  0.74800000  0.07160000  0.50875000  1.0
  C  C112  1  0.62507000  0.12460000  0.08640000  1.0
  C  C113  1  0.61490000  0.85880000  0.11350000  1.0
  C  C114  1  0.52750000  0.97020000  0.99090000  1.0
  C  C115  1  0.88020000  0.11160000  0.21770000  1.0
  C  C116  1  0.87962000  0.84160000  0.24250000  1.0
  C  C117  1  0.97160000  0.94050000  0.21150000  1.0
  C  C118  1  0.24871000  0.51800000  0.38164000  1.0
  C  C119  1  0.24928000  0.63790000  0.44270000  1.0
  C  C120  1  0.25130000  0.81750000  0.43480000  1.0
  C  C121  1  0.24800000  0.57160000  0.50875000  1.0
  C  C122  1  0.12507000  0.62460000  0.08640000  1.0
  C  C123  1  0.11490000  0.35880000  0.11350000  1.0
  C  C124  1  0.02750000  0.47020000  0.99090000  1.0
  C  C125  1  0.38020000  0.61160000  0.21770000  1.0
  C  C126  1  0.37962000  0.34160000  0.24250000  1.0
  C  C127  1  0.47160000  0.44050000  0.21150000  1.0
  C  C128  1  0.74871000  0.98200000  0.88164000  1.0
  C  C129  1  0.74928000  0.86210000  0.94270000  1.0
  C  C130  1  0.75130000  0.68250000  0.93480000  1.0
  C  C131  1  0.74800000  0.92840000  0.00875000  1.0
  C  C132  1  0.62507000  0.87540000  0.58640000  1.0
  C  C133  1  0.61490000  0.14120000  0.61350000  1.0
  C  C134  1  0.52750000  0.02980000  0.49090000  1.0
  C  C135  1  0.88020000  0.88840000  0.71770000  1.0
  C  C136  1  0.87962000  0.15840000  0.74250000  1.0
  C  C137  1  0.97160000  0.05950000  0.71150000  1.0
  C  C138  1  0.24871000  0.48200000  0.88164000  1.0
  C  C139  1  0.24928000  0.36210000  0.94270000  1.0
  C  C140  1  0.25130000  0.18250000  0.93480000  1.0
  C  C141  1  0.24800000  0.42840000  0.00875000  1.0
  C  C142  1  0.12507000  0.37540000  0.58640000  1.0
  C  C143  1  0.11490000  0.64120000  0.61350000  1.0
  C  C144  1  0.02750000  0.52980000  0.49090000  1.0
  C  C145  1  0.38020000  0.38840000  0.71770000  1.0
  C  C146  1  0.37962000  0.65840000  0.74250000  1.0
  C  C147  1  0.47160000  0.55950000  0.71150000  1.0
  C  C148  1  0.25129000  0.98200000  0.61836000  1.0
  C  C149  1  0.25072000  0.86210000  0.55730000  1.0
  C  C150  1  0.24870000  0.68250000  0.56520000  1.0
  C  C151  1  0.25200000  0.92840000  0.49125000  1.0
  C  C152  1  0.37493000  0.87540000  0.91360000  1.0
  C  C153  1  0.38510000  0.14120000  0.88650000  1.0
  C  C154  1  0.47250000  0.02980000  0.00910000  1.0
  C  C155  1  0.11980000  0.88840000  0.78230000  1.0
  C  C156  1  0.12038000  0.15840000  0.75750000  1.0
  C  C157  1  0.02840000  0.05950000  0.78850000  1.0
  C  C158  1  0.75129000  0.48200000  0.61836000  1.0
  C  C159  1  0.75072000  0.36210000  0.55730000  1.0
  C  C160  1  0.74870000  0.18250000  0.56520000  1.0
  C  C161  1  0.75200000  0.42840000  0.49125000  1.0
  C  C162  1  0.87493000  0.37540000  0.91360000  1.0
  C  C163  1  0.88510000  0.64120000  0.88650000  1.0
  C  C164  1  0.97250000  0.52980000  0.00910000  1.0
  C  C165  1  0.61980000  0.38840000  0.78230000  1.0
  C  C166  1  0.62038000  0.65840000  0.75750000  1.0
  C  C167  1  0.52840000  0.55950000  0.78850000  1.0
  N  N168  1  0.32783000  0.09100000  0.34824000  1.0
  N  N169  1  0.33439000  0.92090000  0.33077000  1.0
  N  N170  1  0.41237000  0.98270000  0.43945000  1.0
  N  N171  1  0.16821000  0.08520000  0.26511000  1.0
  N  N172  1  0.16871000  0.91150000  0.24930000  1.0
  N  N173  1  0.08769000  0.96210000  0.27730000  1.0
  N  N174  1  0.82783000  0.59100000  0.34824000  1.0
  N  N175  1  0.83439000  0.42090000  0.33077000  1.0
  N  N176  1  0.91237000  0.48270000  0.43945000  1.0
  N  N177  1  0.66821000  0.58520000  0.26511000  1.0
  N  N178  1  0.66871000  0.41150000  0.24930000  1.0
  N  N179  1  0.58769000  0.46210000  0.27730000  1.0
  N  N180  1  0.67217000  0.09100000  0.15176000  1.0
  N  N181  1  0.66561000  0.92090000  0.16923000  1.0
  N  N182  1  0.58763000  0.98270000  0.06055000  1.0
  N  N183  1  0.83179000  0.08520000  0.23489000  1.0
  N  N184  1  0.83129000  0.91150000  0.25070000  1.0
  N  N185  1  0.91231000  0.96210000  0.22270000  1.0
  N  N186  1  0.17217000  0.59100000  0.15176000  1.0
  N  N187  1  0.16561000  0.42090000  0.16923000  1.0
  N  N188  1  0.08763000  0.48270000  0.06055000  1.0
  N  N189  1  0.33179000  0.58520000  0.23489000  1.0
  N  N190  1  0.33129000  0.41150000  0.25070000  1.0
  N  N191  1  0.41231000  0.46210000  0.22270000  1.0
  N  N192  1  0.67217000  0.90900000  0.65176000  1.0
  N  N193  1  0.66561000  0.07910000  0.66923000  1.0
  N  N194  1  0.58763000  0.01730000  0.56055000  1.0
  N  N195  1  0.83179000  0.91480000  0.73489000  1.0
  N  N196  1  0.83129000  0.08850000  0.75070000  1.0
  N  N197  1  0.91231000  0.03790000  0.72270000  1.0
  N  N198  1  0.17217000  0.40900000  0.65176000  1.0
  N  N199  1  0.16561000  0.57910000  0.66923000  1.0
  N  N200  1  0.08763000  0.51730000  0.56055000  1.0
  N  N201  1  0.33179000  0.41480000  0.73489000  1.0
  N  N202  1  0.33129000  0.58850000  0.75070000  1.0
  N  N203  1  0.41231000  0.53790000  0.72270000  1.0
  N  N204  1  0.32783000  0.90900000  0.84824000  1.0
  N  N205  1  0.33439000  0.07910000  0.83077000  1.0
  N  N206  1  0.41237000  0.01730000  0.93945000  1.0
  N  N207  1  0.16821000  0.91480000  0.76511000  1.0
  N  N208  1  0.16871000  0.08850000  0.74930000  1.0
  N  N209  1  0.08769000  0.03790000  0.77730000  1.0
  N  N210  1  0.82783000  0.40900000  0.84824000  1.0
  N  N211  1  0.83439000  0.57910000  0.83077000  1.0
  N  N212  1  0.91237000  0.51730000  0.93945000  1.0
  N  N213  1  0.66821000  0.41480000  0.76511000  1.0
  N  N214  1  0.66871000  0.58850000  0.74930000  1.0
  N  N215  1  0.58769000  0.53790000  0.77730000  1.0
  O  O216  1  0.24950000  0.08010000  0.17776000  1.0
  O  O217  1  0.25425000  0.85920000  0.11015000  1.0
  O  O218  1  0.74950000  0.58010000  0.17776000  1.0
  O  O219  1  0.75425000  0.35920000  0.11015000  1.0
  O  O220  1  0.75050000  0.08010000  0.32224000  1.0
  O  O221  1  0.74575000  0.85920000  0.38985000  1.0
  O  O222  1  0.25050000  0.58010000  0.32224000  1.0
  O  O223  1  0.24575000  0.35920000  0.38985000  1.0
  O  O224  1  0.75050000  0.91990000  0.82224000  1.0
  O  O225  1  0.74575000  0.14080000  0.88985000  1.0
  O  O226  1  0.25050000  0.41990000  0.82224000  1.0
  O  O227  1  0.24575000  0.64080000  0.88985000  1.0
  O  O228  1  0.24950000  0.91990000  0.67776000  1.0
  O  O229  1  0.25425000  0.14080000  0.61015000  1.0
  O  O230  1  0.74950000  0.41990000  0.67776000  1.0
  O  O231  1  0.75425000  0.64080000  0.61015000  1.0
