# generated using pymatgen
data_FeH8Au2(C2N)8
_symmetry_space_group_name_H-M   'P 1'
_cell_length_a   26.40130000
_cell_length_b   26.40130000
_cell_length_c   9.66620000
_cell_angle_alpha   90.00000000
_cell_angle_beta   90.00000000
_cell_angle_gamma   120.00000000
_symmetry_Int_Tables_number   1
_chemical_formula_structural   FeH8Au2(C2N)8
_chemical_formula_sum   'Fe9 H72 Au18 C144 N72'
_cell_volume   5834.94857096
_cell_formula_units_Z   9
loop_
 _symmetry_equiv_pos_site_id
 _symmetry_equiv_pos_as_xyz
  1  'x, y, z'
loop_
 _atom_site_type_symbol
 _atom_site_label
 _atom_site_symmetry_multiplicity
 _atom_site_fract_x
 _atom_site_fract_y
 _atom_site_fract_z
 _atom_site_occupancy
  Fe  Fe0  1  0.33333333  0.16667000  0.66666667  1.0
  Fe  Fe1  1  0.00000000  0.50000000  0.00000000  1.0
  Fe  Fe2  1  0.83333000  0.16667000  0.66666667  1.0
  Fe  Fe3  1  0.50000000  0.50000000  0.00000000  1.0
  Fe  Fe4  1  0.83333000  0.66666667  0.66666667  1.0
  Fe  Fe5  1  0.50000000  0.00000000  0.00000000  1.0
  Fe  Fe6  1  0.16667000  0.33333333  0.33333333  1.0
  Fe  Fe7  1  0.16667000  0.83333000  0.33333333  1.0
  Fe  Fe8  1  0.66666667  0.83333000  0.33333333  1.0
  H  H9  1  0.43320000  0.14350000  0.68060000  1.0
  H  H10  1  0.53230000  0.19040000  0.66830000  1.0
  H  H11  1  0.09987000  0.47683000  0.01393000  1.0
  H  H12  1  0.19897000  0.52373000  0.00163000  1.0
  H  H13  1  0.76653000  0.81017000  0.34727000  1.0
  H  H14  1  0.86563000  0.85707000  0.33497000  1.0
  H  H15  1  0.85650000  0.28970000  0.68060000  1.0
  H  H16  1  0.80960000  0.34190000  0.66830000  1.0
  H  H17  1  0.52317000  0.62303000  0.01393000  1.0
  H  H18  1  0.47627000  0.67523000  0.00163000  1.0
  H  H19  1  0.18983000  0.95637000  0.34727000  1.0
  H  H20  1  0.14293000  0.00857000  0.33497000  1.0
  H  H21  1  0.71030000  0.56680000  0.68060000  1.0
  H  H22  1  0.65810000  0.46770000  0.66830000  1.0
  H  H23  1  0.37697000  0.90013000  0.01393000  1.0
  H  H24  1  0.32477000  0.80103000  0.00163000  1.0
  H  H25  1  0.04363000  0.23347000  0.34727000  1.0
  H  H26  1  0.99143000  0.13437000  0.33497000  1.0
  H  H27  1  0.14350000  0.43320000  0.31940000  1.0
  H  H28  1  0.19040000  0.53230000  0.33170000  1.0
  H  H29  1  0.81017000  0.76653000  0.65273000  1.0
  H  H30  1  0.85707000  0.86563000  0.66503000  1.0
  H  H31  1  0.47683000  0.09987000  0.98607000  1.0
  H  H32  1  0.52373000  0.19897000  0.99837000  1.0
  H  H33  1  0.28970000  0.85650000  0.31940000  1.0
  H  H34  1  0.34190000  0.80960000  0.33170000  1.0
  H  H35  1  0.95637000  0.18983000  0.65273000  1.0
  H  H36  1  0.00857000  0.14293000  0.66503000  1.0
  H  H37  1  0.62303000  0.52317000  0.98607000  1.0
  H  H38  1  0.67523000  0.47627000  0.99837000  1.0
  H  H39  1  0.56680000  0.71030000  0.31940000  1.0
  H  H40  1  0.46770000  0.65810000  0.33170000  1.0
  H  H41  1  0.23347000  0.04363000  0.65273000  1.0
  H  H42  1  0.13437000  0.99143000  0.66503000  1.0
  H  H43  1  0.90013000  0.37697000  0.98607000  1.0
  H  H44  1  0.80103000  0.32477000  0.99837000  1.0
  H  H45  1  0.56680000  0.85650000  0.31940000  1.0
  H  H46  1  0.46770000  0.80960000  0.33170000  1.0
  H  H47  1  0.23347000  0.18983000  0.65273000  1.0
  H  H48  1  0.13437000  0.14293000  0.66503000  1.0
  H  H49  1  0.90013000  0.52317000  0.98607000  1.0
  H  H50  1  0.80103000  0.47627000  0.99837000  1.0
  H  H51  1  0.14350000  0.71030000  0.31940000  1.0
  H  H52  1  0.19040000  0.65810000  0.33170000  1.0
  H  H53  1  0.81017000  0.04363000  0.65273000  1.0
  H  H54  1  0.85707000  0.99143000  0.66503000  1.0
  H  H55  1  0.47683000  0.37697000  0.98607000  1.0
  H  H56  1  0.52373000  0.32477000  0.99837000  1.0
  H  H57  1  0.28970000  0.43320000  0.31940000  1.0
  H  H58  1  0.34190000  0.53230000  0.33170000  1.0
  H  H59  1  0.95637000  0.76653000  0.65273000  1.0
  H  H60  1  0.00857000  0.86563000  0.66503000  1.0
  H  H61  1  0.62303000  0.09987000  0.98607000  1.0
  H  H62  1  0.67523000  0.19897000  0.99837000  1.0
  H  H63  1  0.85650000  0.56680000  0.68060000  1.0
  H  H64  1  0.80960000  0.46770000  0.66830000  1.0
  H  H65  1  0.52317000  0.90013000  0.01393000  1.0
  H  H66  1  0.47627000  0.80103000  0.00163000  1.0
  H  H67  1  0.18983000  0.23347000  0.34727000  1.0
  H  H68  1  0.14293000  0.13437000  0.33497000  1.0
  H  H69  1  0.71030000  0.14350000  0.68060000  1.0
  H  H70  1  0.65810000  0.19040000  0.66830000  1.0
  H  H71  1  0.37697000  0.47683000  0.01393000  1.0
  H  H72  1  0.32477000  0.52373000  0.00163000  1.0
  H  H73  1  0.04363000  0.81017000  0.34727000  1.0
  H  H74  1  0.99143000  0.85707000  0.33497000  1.0
  H  H75  1  0.43320000  0.28970000  0.68060000  1.0
  H  H76  1  0.53230000  0.34190000  0.66830000  1.0
  H  H77  1  0.09987000  0.62303000  0.01393000  1.0
  H  H78  1  0.19897000  0.67523000  0.00163000  1.0
  H  H79  1  0.76653000  0.95637000  0.34727000  1.0
  H  H80  1  0.86563000  0.00857000  0.33497000  1.0
  Au  Au81  1  0.29228000  0.29228000  0.00000000  1.0
  Au  Au82  1  0.95895000  0.62561000  0.33333333  1.0
  Au  Au83  1  0.62561000  0.95895000  0.66666667  1.0
  Au  Au84  1  0.70772000  0.00000000  0.00000000  1.0
  Au  Au85  1  0.37439000  0.33333333  0.33333333  1.0
  Au  Au86  1  0.04105000  0.66666667  0.66666667  1.0
  Au  Au87  1  0.00000000  0.70772000  0.00000000  1.0
  Au  Au88  1  0.66666667  0.04105000  0.33333333  1.0
  Au  Au89  1  0.33333333  0.37439000  0.66666667  1.0
  Au  Au90  1  0.70772000  0.70772000  0.00000000  1.0
  Au  Au91  1  0.37439000  0.04105000  0.33333333  1.0
  Au  Au92  1  0.04105000  0.37439000  0.66666667  1.0
  Au  Au93  1  0.29228000  0.00000000  0.00000000  1.0
  Au  Au94  1  0.95895000  0.33333333  0.33333333  1.0
  Au  Au95  1  0.62561000  0.66666667  0.66666667  1.0
  Au  Au96  1  0.00000000  0.29228000  0.00000000  1.0
  Au  Au97  1  0.66666667  0.62561000  0.33333333  1.0
  Au  Au98  1  0.33333333  0.95895000  0.66666667  1.0
  C  C99  1  0.32290000  0.25120000  0.88420000  1.0
  C  C100  1  0.45350000  0.18410000  0.67600000  1.0
  C  C101  1  0.51310000  0.21180000  0.67200000  1.0
  C  C102  1  0.98957000  0.58453000  0.21753000  1.0
  C  C103  1  0.12017000  0.51743000  0.00933000  1.0
  C  C104  1  0.17977000  0.54513000  0.00533000  1.0
  C  C105  1  0.65623000  0.91787000  0.55087000  1.0
  C  C106  1  0.78683000  0.85077000  0.34267000  1.0
  C  C107  1  0.84643000  0.87847000  0.33867000  1.0
  C  C108  1  0.74880000  0.07170000  0.88420000  1.0
  C  C109  1  0.81590000  0.26940000  0.67600000  1.0
  C  C110  1  0.78820000  0.30130000  0.67200000  1.0
  C  C111  1  0.41547000  0.40503000  0.21753000  1.0
  C  C112  1  0.48257000  0.60273000  0.00933000  1.0
  C  C113  1  0.45487000  0.63463000  0.00533000  1.0
  C  C114  1  0.08213000  0.73837000  0.55087000  1.0
  C  C115  1  0.14923000  0.93607000  0.34267000  1.0
  C  C116  1  0.12153000  0.96797000  0.33867000  1.0
  C  C117  1  0.92830000  0.67710000  0.88420000  1.0
  C  C118  1  0.73060000  0.54650000  0.67600000  1.0
  C  C119  1  0.69870000  0.48690000  0.67200000  1.0
  C  C120  1  0.59497000  0.01043000  0.21753000  1.0
  C  C121  1  0.39727000  0.87983000  0.00933000  1.0
  C  C122  1  0.36537000  0.82023000  0.00533000  1.0
  C  C123  1  0.26163000  0.34377000  0.55087000  1.0
  C  C124  1  0.06393000  0.21317000  0.34267000  1.0
  C  C125  1  0.03203000  0.15357000  0.33867000  1.0
  C  C126  1  0.25120000  0.32290000  0.11580000  1.0
  C  C127  1  0.18410000  0.45350000  0.32400000  1.0
  C  C128  1  0.21180000  0.51310000  0.32800000  1.0
  C  C129  1  0.91787000  0.65623000  0.44913000  1.0
  C  C130  1  0.85077000  0.78683000  0.65733000  1.0
  C  C131  1  0.87847000  0.84643000  0.66133000  1.0
  C  C132  1  0.58453000  0.98957000  0.78247000  1.0
  C  C133  1  0.51743000  0.12017000  0.99067000  1.0
  C  C134  1  0.54513000  0.17977000  0.99467000  1.0
  C  C135  1  0.07170000  0.74880000  0.11580000  1.0
  C  C136  1  0.26940000  0.81590000  0.32400000  1.0
  C  C137  1  0.30130000  0.78820000  0.32800000  1.0
  C  C138  1  0.73837000  0.08213000  0.44913000  1.0
  C  C139  1  0.93607000  0.14923000  0.65733000  1.0
  C  C140  1  0.96797000  0.12153000  0.66133000  1.0
  C  C141  1  0.40503000  0.41547000  0.78247000  1.0
  C  C142  1  0.60273000  0.48257000  0.99067000  1.0
  C  C143  1  0.63463000  0.45487000  0.99467000  1.0
  C  C144  1  0.67710000  0.92830000  0.11580000  1.0
  C  C145  1  0.54650000  0.73060000  0.32400000  1.0
  C  C146  1  0.48690000  0.69870000  0.32800000  1.0
  C  C147  1  0.34377000  0.26163000  0.44913000  1.0
  C  C148  1  0.21317000  0.06393000  0.65733000  1.0
  C  C149  1  0.15357000  0.03203000  0.66133000  1.0
  C  C150  1  0.01043000  0.59497000  0.78247000  1.0
  C  C151  1  0.87983000  0.39727000  0.99067000  1.0
  C  C152  1  0.82023000  0.36537000  0.99467000  1.0
  C  C153  1  0.67710000  0.74880000  0.11580000  1.0
  C  C154  1  0.54650000  0.81590000  0.32400000  1.0
  C  C155  1  0.48690000  0.78820000  0.32800000  1.0
  C  C156  1  0.34377000  0.08213000  0.44913000  1.0
  C  C157  1  0.21317000  0.14923000  0.65733000  1.0
  C  C158  1  0.15357000  0.12153000  0.66133000  1.0
  C  C159  1  0.01043000  0.41547000  0.78247000  1.0
  C  C160  1  0.87983000  0.48257000  0.99067000  1.0
  C  C161  1  0.82023000  0.45487000  0.99467000  1.0
  C  C162  1  0.25120000  0.92830000  0.11580000  1.0
  C  C163  1  0.18410000  0.73060000  0.32400000  1.0
  C  C164  1  0.21180000  0.69870000  0.32800000  1.0
  C  C165  1  0.91787000  0.26163000  0.44913000  1.0
  C  C166  1  0.85077000  0.06393000  0.65733000  1.0
  C  C167  1  0.87847000  0.03203000  0.66133000  1.0
  C  C168  1  0.58453000  0.59497000  0.78247000  1.0
  C  C169  1  0.51743000  0.39727000  0.99067000  1.0
  C  C170  1  0.54513000  0.36537000  0.99467000  1.0
  C  C171  1  0.07170000  0.32290000  0.11580000  1.0
  C  C172  1  0.26940000  0.45350000  0.32400000  1.0
  C  C173  1  0.30130000  0.51310000  0.32800000  1.0
  C  C174  1  0.73837000  0.65623000  0.44913000  1.0
  C  C175  1  0.93607000  0.78683000  0.65733000  1.0
  C  C176  1  0.96797000  0.84643000  0.66133000  1.0
  C  C177  1  0.40503000  0.98957000  0.78247000  1.0
  C  C178  1  0.60273000  0.12017000  0.99067000  1.0
  C  C179  1  0.63463000  0.17977000  0.99467000  1.0
  C  C180  1  0.74880000  0.67710000  0.88420000  1.0
  C  C181  1  0.81590000  0.54650000  0.67600000  1.0
  C  C182  1  0.78820000  0.48690000  0.67200000  1.0
  C  C183  1  0.41547000  0.01043000  0.21753000  1.0
  C  C184  1  0.48257000  0.87983000  0.00933000  1.0
  C  C185  1  0.45487000  0.82023000  0.00533000  1.0
  C  C186  1  0.08213000  0.34377000  0.55087000  1.0
  C  C187  1  0.14923000  0.21317000  0.34267000  1.0
  C  C188  1  0.12153000  0.15357000  0.33867000  1.0
  C  C189  1  0.92830000  0.25120000  0.88420000  1.0
  C  C190  1  0.73060000  0.18410000  0.67600000  1.0
  C  C191  1  0.69870000  0.21180000  0.67200000  1.0
  C  C192  1  0.59497000  0.58453000  0.21753000  1.0
  C  C193  1  0.39727000  0.51743000  0.00933000  1.0
  C  C194  1  0.36537000  0.54513000  0.00533000  1.0
  C  C195  1  0.26163000  0.91787000  0.55087000  1.0
  C  C196  1  0.06393000  0.85077000  0.34267000  1.0
  C  C197  1  0.03203000  0.87847000  0.33867000  1.0
  C  C198  1  0.32290000  0.07170000  0.88420000  1.0
  C  C199  1  0.45350000  0.26940000  0.67600000  1.0
  C  C200  1  0.51310000  0.30130000  0.67200000  1.0
  C  C201  1  0.98957000  0.40503000  0.21753000  1.0
  C  C202  1  0.12017000  0.60273000  0.00933000  1.0
  C  C203  1  0.17977000  0.63463000  0.00533000  1.0
  C  C204  1  0.65623000  0.73837000  0.55087000  1.0
  C  C205  1  0.78683000  0.93607000  0.34267000  1.0
  C  C206  1  0.84643000  0.96797000  0.33867000  1.0
  C  C207  1  0.54440000  0.27220000  0.67400000  1.0
  C  C208  1  0.60870000  0.30435000  0.67300000  1.0
  C  C209  1  0.21107000  0.60553000  0.00733000  1.0
  C  C210  1  0.27537000  0.63768000  0.00633000  1.0
  C  C211  1  0.87773000  0.93887000  0.34067000  1.0
  C  C212  1  0.94203000  0.97102000  0.33967000  1.0
  C  C213  1  0.72780000  0.27220000  0.67400000  1.0
  C  C214  1  0.69565000  0.30435000  0.67300000  1.0
  C  C215  1  0.39447000  0.60553000  0.00733000  1.0
  C  C216  1  0.36232000  0.63768000  0.00633000  1.0
  C  C217  1  0.06113000  0.93887000  0.34067000  1.0
  C  C218  1  0.02898000  0.97102000  0.33967000  1.0
  C  C219  1  0.72780000  0.45560000  0.67400000  1.0
  C  C220  1  0.69565000  0.39130000  0.67300000  1.0
  C  C221  1  0.39447000  0.78893000  0.00733000  1.0
  C  C222  1  0.36232000  0.72463000  0.00633000  1.0
  C  C223  1  0.06113000  0.12227000  0.34067000  1.0
  C  C224  1  0.02898000  0.05797000  0.33967000  1.0
  C  C225  1  0.27220000  0.54440000  0.32600000  1.0
  C  C226  1  0.30435000  0.60870000  0.32700000  1.0
  C  C227  1  0.93887000  0.87773000  0.65933000  1.0
  C  C228  1  0.97102000  0.94203000  0.66033000  1.0
  C  C229  1  0.60553000  0.21107000  0.99267000  1.0
  C  C230  1  0.63768000  0.27537000  0.99367000  1.0
  C  C231  1  0.27220000  0.72780000  0.32600000  1.0
  C  C232  1  0.30435000  0.69565000  0.32700000  1.0
  C  C233  1  0.93887000  0.06113000  0.65933000  1.0
  C  C234  1  0.97102000  0.02898000  0.66033000  1.0
  C  C235  1  0.60553000  0.39447000  0.99267000  1.0
  C  C236  1  0.63768000  0.36232000  0.99367000  1.0
  C  C237  1  0.45560000  0.72780000  0.32600000  1.0
  C  C238  1  0.39130000  0.69565000  0.32700000  1.0
  C  C239  1  0.12227000  0.06113000  0.65933000  1.0
  C  C240  1  0.05797000  0.02898000  0.66033000  1.0
  C  C241  1  0.78893000  0.39447000  0.99267000  1.0
  C  C242  1  0.72463000  0.36232000  0.99367000  1.0
  N  N243  1  0.33130000  0.22160000  0.81350000  1.0
  N  N244  1  0.99797000  0.55493000  0.14683000  1.0
  N  N245  1  0.66463000  0.88827000  0.48017000  1.0
  N  N246  1  0.77840000  0.10970000  0.81350000  1.0
  N  N247  1  0.44507000  0.44303000  0.14683000  1.0
  N  N248  1  0.11173000  0.77637000  0.48017000  1.0
  N  N249  1  0.89030000  0.66870000  0.81350000  1.0
  N  N250  1  0.55697000  0.00203000  0.14683000  1.0
  N  N251  1  0.22363000  0.33537000  0.48017000  1.0
  N  N252  1  0.22160000  0.33130000  0.18650000  1.0
  N  N253  1  0.88827000  0.66463000  0.51983000  1.0
  N  N254  1  0.55493000  0.99797000  0.85317000  1.0
  N  N255  1  0.10970000  0.77840000  0.18650000  1.0
  N  N256  1  0.77637000  0.11173000  0.51983000  1.0
  N  N257  1  0.44303000  0.44507000  0.85317000  1.0
  N  N258  1  0.66870000  0.89030000  0.18650000  1.0
  N  N259  1  0.33537000  0.22363000  0.51983000  1.0
  N  N260  1  0.00203000  0.55697000  0.85317000  1.0
  N  N261  1  0.66870000  0.77840000  0.18650000  1.0
  N  N262  1  0.33537000  0.11173000  0.51983000  1.0
  N  N263  1  0.00203000  0.44507000  0.85317000  1.0
  N  N264  1  0.22160000  0.89030000  0.18650000  1.0
  N  N265  1  0.88827000  0.22363000  0.51983000  1.0
  N  N266  1  0.55493000  0.55697000  0.85317000  1.0
  N  N267  1  0.10970000  0.33130000  0.18650000  1.0
  N  N268  1  0.77637000  0.66463000  0.51983000  1.0
  N  N269  1  0.44303000  0.99797000  0.85317000  1.0
  N  N270  1  0.77840000  0.66870000  0.81350000  1.0
  N  N271  1  0.44507000  0.00203000  0.14683000  1.0
  N  N272  1  0.11173000  0.33537000  0.48017000  1.0
  N  N273  1  0.89030000  0.22160000  0.81350000  1.0
  N  N274  1  0.55697000  0.55493000  0.14683000  1.0
  N  N275  1  0.22363000  0.88827000  0.48017000  1.0
  N  N276  1  0.33130000  0.10970000  0.81350000  1.0
  N  N277  1  0.99797000  0.44303000  0.14683000  1.0
  N  N278  1  0.66463000  0.77637000  0.48017000  1.0
  N  N279  1  0.42240000  0.21120000  0.67300000  1.0
  N  N280  1  0.08907000  0.54453000  0.00633000  1.0
  N  N281  1  0.75573000  0.87787000  0.33967000  1.0
  N  N282  1  0.78880000  0.21120000  0.67300000  1.0
  N  N283  1  0.45547000  0.54453000  0.00633000  1.0
  N  N284  1  0.12213000  0.87787000  0.33967000  1.0
  N  N285  1  0.78880000  0.57760000  0.67300000  1.0
  N  N286  1  0.45547000  0.91093000  0.00633000  1.0
  N  N287  1  0.12213000  0.24427000  0.33967000  1.0
  N  N288  1  0.21120000  0.42240000  0.32700000  1.0
  N  N289  1  0.87787000  0.75573000  0.66033000  1.0
  N  N290  1  0.54453000  0.08907000  0.99367000  1.0
  N  N291  1  0.21120000  0.78880000  0.32700000  1.0
  N  N292  1  0.87787000  0.12213000  0.66033000  1.0
  N  N293  1  0.54453000  0.45547000  0.99367000  1.0
  N  N294  1  0.57760000  0.78880000  0.32700000  1.0
  N  N295  1  0.24427000  0.12213000  0.66033000  1.0
  N  N296  1  0.91093000  0.45547000  0.99367000  1.0
  N  N297  1  0.63640000  0.36360000  0.67000000  1.0
  N  N298  1  0.30307000  0.69693000  0.00333000  1.0
  N  N299  1  0.96973000  0.03027000  0.33667000  1.0
  N  N300  1  0.63640000  0.27280000  0.67000000  1.0
  N  N301  1  0.30307000  0.60613000  0.00333000  1.0
  N  N302  1  0.96973000  0.93947000  0.33667000  1.0
  N  N303  1  0.72720000  0.36360000  0.67000000  1.0
  N  N304  1  0.39387000  0.69693000  0.00333000  1.0
  N  N305  1  0.06053000  0.03027000  0.33667000  1.0
  N  N306  1  0.36360000  0.63640000  0.33000000  1.0
  N  N307  1  0.03027000  0.96973000  0.66333000  1.0
  N  N308  1  0.69693000  0.30307000  0.99667000  1.0
  N  N309  1  0.27280000  0.63640000  0.33000000  1.0
  N  N310  1  0.93947000  0.96973000  0.66333000  1.0
  N  N311  1  0.60613000  0.30307000  0.99667000  1.0
  N  N312  1  0.36360000  0.72720000  0.33000000  1.0
  N  N313  1  0.03027000  0.06053000  0.66333000  1.0
  N  N314  1  0.69693000  0.39387000  0.99667000  1.0
