# generated using pymatgen
data_FeH8Au2(C2N)8
_symmetry_space_group_name_H-M   'P 1'
_cell_length_a   26.80780000
_cell_length_b   26.80780000
_cell_length_c   9.94060000
_cell_angle_alpha   90.00000000
_cell_angle_beta   90.00000000
_cell_angle_gamma   120.00000000
_symmetry_Int_Tables_number   1
_chemical_formula_structural   FeH8Au2(C2N)8
_chemical_formula_sum   'Fe9 H72 Au18 C144 N72'
_cell_volume   6186.79291937
_cell_formula_units_Z   9
loop_
 _symmetry_equiv_pos_site_id
 _symmetry_equiv_pos_as_xyz
  1  'x, y, z'
loop_
 _atom_site_type_symbol
 _atom_site_label
 _atom_site_symmetry_multiplicity
 _atom_site_fract_x
 _atom_site_fract_y
 _atom_site_fract_z
 _atom_site_occupancy
  Fe  Fe0  1  0.83333000  0.16667000  0.66666667  1.0
  Fe  Fe1  1  0.50000000  0.50000000  0.00000000  1.0
  Fe  Fe2  1  0.83333000  0.66666667  0.66666667  1.0
  Fe  Fe3  1  0.50000000  0.00000000  0.00000000  1.0
  Fe  Fe4  1  0.33333333  0.16667000  0.66666667  1.0
  Fe  Fe5  1  0.00000000  0.50000000  0.00000000  1.0
  Fe  Fe6  1  0.16667000  0.83333000  0.33333333  1.0
  Fe  Fe7  1  0.66666667  0.83333000  0.33333333  1.0
  Fe  Fe8  1  0.16667000  0.33333333  0.33333333  1.0
  H  H9  1  0.70890000  0.14660000  0.67610000  1.0
  H  H10  1  0.65780000  0.19290000  0.68030000  1.0
  H  H11  1  0.37557000  0.47993000  0.00943000  1.0
  H  H12  1  0.32447000  0.52623000  0.01363000  1.0
  H  H13  1  0.04223000  0.81327000  0.34277000  1.0
  H  H14  1  0.99113000  0.85957000  0.34697000  1.0
  H  H15  1  0.85340000  0.56230000  0.67610000  1.0
  H  H16  1  0.80710000  0.46490000  0.68030000  1.0
  H  H17  1  0.52007000  0.89563000  0.00943000  1.0
  H  H18  1  0.47377000  0.79823000  0.01363000  1.0
  H  H19  1  0.18673000  0.22897000  0.34277000  1.0
  H  H20  1  0.14043000  0.13157000  0.34697000  1.0
  H  H21  1  0.43770000  0.29110000  0.67610000  1.0
  H  H22  1  0.53510000  0.34220000  0.68030000  1.0
  H  H23  1  0.10437000  0.62443000  0.00943000  1.0
  H  H24  1  0.20177000  0.67553000  0.01363000  1.0
  H  H25  1  0.77103000  0.95777000  0.34277000  1.0
  H  H26  1  0.86843000  0.00887000  0.34697000  1.0
  H  H27  1  0.14660000  0.70890000  0.32390000  1.0
  H  H28  1  0.19290000  0.65780000  0.31970000  1.0
  H  H29  1  0.81327000  0.04223000  0.65723000  1.0
  H  H30  1  0.85957000  0.99113000  0.65303000  1.0
  H  H31  1  0.47993000  0.37557000  0.99057000  1.0
  H  H32  1  0.52623000  0.32447000  0.98637000  1.0
  H  H33  1  0.56230000  0.85340000  0.32390000  1.0
  H  H34  1  0.46490000  0.80710000  0.31970000  1.0
  H  H35  1  0.22897000  0.18673000  0.65723000  1.0
  H  H36  1  0.13157000  0.14043000  0.65303000  1.0
  H  H37  1  0.89563000  0.52007000  0.99057000  1.0
  H  H38  1  0.79823000  0.47377000  0.98637000  1.0
  H  H39  1  0.29110000  0.43770000  0.32390000  1.0
  H  H40  1  0.34220000  0.53510000  0.31970000  1.0
  H  H41  1  0.95777000  0.77103000  0.65723000  1.0
  H  H42  1  0.00887000  0.86843000  0.65303000  1.0
  H  H43  1  0.62443000  0.10437000  0.99057000  1.0
  H  H44  1  0.67553000  0.20177000  0.98637000  1.0
  H  H45  1  0.29110000  0.85340000  0.32390000  1.0
  H  H46  1  0.34220000  0.80710000  0.31970000  1.0
  H  H47  1  0.95777000  0.18673000  0.65723000  1.0
  H  H48  1  0.00887000  0.14043000  0.65303000  1.0
  H  H49  1  0.62443000  0.52007000  0.99057000  1.0
  H  H50  1  0.67553000  0.47377000  0.98637000  1.0
  H  H51  1  0.14660000  0.43770000  0.32390000  1.0
  H  H52  1  0.19290000  0.53510000  0.31970000  1.0
  H  H53  1  0.81327000  0.77103000  0.65723000  1.0
  H  H54  1  0.85957000  0.86843000  0.65303000  1.0
  H  H55  1  0.47993000  0.10437000  0.99057000  1.0
  H  H56  1  0.52623000  0.20177000  0.98637000  1.0
  H  H57  1  0.56230000  0.70890000  0.32390000  1.0
  H  H58  1  0.46490000  0.65780000  0.31970000  1.0
  H  H59  1  0.22897000  0.04223000  0.65723000  1.0
  H  H60  1  0.13157000  0.99113000  0.65303000  1.0
  H  H61  1  0.89563000  0.37557000  0.99057000  1.0
  H  H62  1  0.79823000  0.32447000  0.98637000  1.0
  H  H63  1  0.85340000  0.29110000  0.67610000  1.0
  H  H64  1  0.80710000  0.34220000  0.68030000  1.0
  H  H65  1  0.52007000  0.62443000  0.00943000  1.0
  H  H66  1  0.47377000  0.67553000  0.01363000  1.0
  H  H67  1  0.18673000  0.95777000  0.34277000  1.0
  H  H68  1  0.14043000  0.00887000  0.34697000  1.0
  H  H69  1  0.43770000  0.14660000  0.67610000  1.0
  H  H70  1  0.53510000  0.19290000  0.68030000  1.0
  H  H71  1  0.10437000  0.47993000  0.00943000  1.0
  H  H72  1  0.20177000  0.52623000  0.01363000  1.0
  H  H73  1  0.77103000  0.81327000  0.34277000  1.0
  H  H74  1  0.86843000  0.85957000  0.34697000  1.0
  H  H75  1  0.70890000  0.56230000  0.67610000  1.0
  H  H76  1  0.65780000  0.46490000  0.68030000  1.0
  H  H77  1  0.37557000  0.89563000  0.00943000  1.0
  H  H78  1  0.32447000  0.79823000  0.01363000  1.0
  H  H79  1  0.04223000  0.22897000  0.34277000  1.0
  H  H80  1  0.99113000  0.13157000  0.34697000  1.0
  Au  Au81  1  0.00000000  0.29173000  0.00000000  1.0
  Au  Au82  1  0.66666667  0.62506000  0.33333333  1.0
  Au  Au83  1  0.33333333  0.95840000  0.66666667  1.0
  Au  Au84  1  0.70827000  0.70827000  0.00000000  1.0
  Au  Au85  1  0.37494000  0.04160000  0.33333333  1.0
  Au  Au86  1  0.04160000  0.37494000  0.66666667  1.0
  Au  Au87  1  0.29173000  0.00000000  0.00000000  1.0
  Au  Au88  1  0.95840000  0.33333333  0.33333333  1.0
  Au  Au89  1  0.62506000  0.66666667  0.66666667  1.0
  Au  Au90  1  0.00000000  0.70827000  0.00000000  1.0
  Au  Au91  1  0.66666667  0.04160000  0.33333333  1.0
  Au  Au92  1  0.33333333  0.37494000  0.66666667  1.0
  Au  Au93  1  0.29173000  0.29173000  0.00000000  1.0
  Au  Au94  1  0.95840000  0.62506000  0.33333333  1.0
  Au  Au95  1  0.62506000  0.95840000  0.66666667  1.0
  Au  Au96  1  0.70827000  0.00000000  0.00000000  1.0
  Au  Au97  1  0.37494000  0.33333333  0.33333333  1.0
  Au  Au98  1  0.04160000  0.66666667  0.66666667  1.0
  C  C99  1  0.72900000  0.18670000  0.67540000  1.0
  C  C100  1  0.69780000  0.21390000  0.67690000  1.0
  C  C101  1  0.92970000  0.25230000  0.88410000  1.0
  C  C102  1  0.39567000  0.52003000  0.00873000  1.0
  C  C103  1  0.36447000  0.54723000  0.01023000  1.0
  C  C104  1  0.59637000  0.58563000  0.21743000  1.0
  C  C105  1  0.06233000  0.85337000  0.34207000  1.0
  C  C106  1  0.03113000  0.88057000  0.34357000  1.0
  C  C107  1  0.26303000  0.91897000  0.55077000  1.0
  C  C108  1  0.81330000  0.54230000  0.67540000  1.0
  C  C109  1  0.78610000  0.48390000  0.67690000  1.0
  C  C110  1  0.74770000  0.67740000  0.88410000  1.0
  C  C111  1  0.47997000  0.87563000  0.00873000  1.0
  C  C112  1  0.45277000  0.81723000  0.01023000  1.0
  C  C113  1  0.41437000  0.01073000  0.21743000  1.0
  C  C114  1  0.14663000  0.20897000  0.34207000  1.0
  C  C115  1  0.11943000  0.15057000  0.34357000  1.0
  C  C116  1  0.08103000  0.34407000  0.55077000  1.0
  C  C117  1  0.45770000  0.27100000  0.67540000  1.0
  C  C118  1  0.51610000  0.30220000  0.67690000  1.0
  C  C119  1  0.32260000  0.07030000  0.88410000  1.0
  C  C120  1  0.12437000  0.60433000  0.00873000  1.0
  C  C121  1  0.18277000  0.63553000  0.01023000  1.0
  C  C122  1  0.98927000  0.40363000  0.21743000  1.0
  C  C123  1  0.79103000  0.93767000  0.34207000  1.0
  C  C124  1  0.84943000  0.96887000  0.34357000  1.0
  C  C125  1  0.65593000  0.73697000  0.55077000  1.0
  C  C126  1  0.18670000  0.72900000  0.32460000  1.0
  C  C127  1  0.21390000  0.69780000  0.32310000  1.0
  C  C128  1  0.25230000  0.92970000  0.11590000  1.0
  C  C129  1  0.85337000  0.06233000  0.65793000  1.0
  C  C130  1  0.88057000  0.03113000  0.65643000  1.0
  C  C131  1  0.91897000  0.26303000  0.44923000  1.0
  C  C132  1  0.52003000  0.39567000  0.99127000  1.0
  C  C133  1  0.54723000  0.36447000  0.98977000  1.0
  C  C134  1  0.58563000  0.59637000  0.78257000  1.0
  C  C135  1  0.54230000  0.81330000  0.32460000  1.0
  C  C136  1  0.48390000  0.78610000  0.32310000  1.0
  C  C137  1  0.67740000  0.74770000  0.11590000  1.0
  C  C138  1  0.20897000  0.14663000  0.65793000  1.0
  C  C139  1  0.15057000  0.11943000  0.65643000  1.0
  C  C140  1  0.34407000  0.08103000  0.44923000  1.0
  C  C141  1  0.87563000  0.47997000  0.99127000  1.0
  C  C142  1  0.81723000  0.45277000  0.98977000  1.0
  C  C143  1  0.01073000  0.41437000  0.78257000  1.0
  C  C144  1  0.27100000  0.45770000  0.32460000  1.0
  C  C145  1  0.30220000  0.51610000  0.32310000  1.0
  C  C146  1  0.07030000  0.32260000  0.11590000  1.0
  C  C147  1  0.93767000  0.79103000  0.65793000  1.0
  C  C148  1  0.96887000  0.84943000  0.65643000  1.0
  C  C149  1  0.73697000  0.65593000  0.44923000  1.0
  C  C150  1  0.60433000  0.12437000  0.99127000  1.0
  C  C151  1  0.63553000  0.18277000  0.98977000  1.0
  C  C152  1  0.40363000  0.98927000  0.78257000  1.0
  C  C153  1  0.27100000  0.81330000  0.32460000  1.0
  C  C154  1  0.30220000  0.78610000  0.32310000  1.0
  C  C155  1  0.07030000  0.74770000  0.11590000  1.0
  C  C156  1  0.93767000  0.14663000  0.65793000  1.0
  C  C157  1  0.96887000  0.11943000  0.65643000  1.0
  C  C158  1  0.73697000  0.08103000  0.44923000  1.0
  C  C159  1  0.60433000  0.47997000  0.99127000  1.0
  C  C160  1  0.63553000  0.45277000  0.98977000  1.0
  C  C161  1  0.40363000  0.41437000  0.78257000  1.0
  C  C162  1  0.18670000  0.45770000  0.32460000  1.0
  C  C163  1  0.21390000  0.51610000  0.32310000  1.0
  C  C164  1  0.25230000  0.32260000  0.11590000  1.0
  C  C165  1  0.85337000  0.79103000  0.65793000  1.0
  C  C166  1  0.88057000  0.84943000  0.65643000  1.0
  C  C167  1  0.91897000  0.65593000  0.44923000  1.0
  C  C168  1  0.52003000  0.12437000  0.99127000  1.0
  C  C169  1  0.54723000  0.18277000  0.98977000  1.0
  C  C170  1  0.58563000  0.98927000  0.78257000  1.0
  C  C171  1  0.54230000  0.72900000  0.32460000  1.0
  C  C172  1  0.48390000  0.69780000  0.32310000  1.0
  C  C173  1  0.67740000  0.92970000  0.11590000  1.0
  C  C174  1  0.20897000  0.06233000  0.65793000  1.0
  C  C175  1  0.15057000  0.03113000  0.65643000  1.0
  C  C176  1  0.34407000  0.26303000  0.44923000  1.0
  C  C177  1  0.87563000  0.39567000  0.99127000  1.0
  C  C178  1  0.81723000  0.36447000  0.98977000  1.0
  C  C179  1  0.01073000  0.59637000  0.78257000  1.0
  C  C180  1  0.81330000  0.27100000  0.67540000  1.0
  C  C181  1  0.78610000  0.30220000  0.67690000  1.0
  C  C182  1  0.74770000  0.07030000  0.88410000  1.0
  C  C183  1  0.47997000  0.60433000  0.00873000  1.0
  C  C184  1  0.45277000  0.63553000  0.01023000  1.0
  C  C185  1  0.41437000  0.40363000  0.21743000  1.0
  C  C186  1  0.14663000  0.93767000  0.34207000  1.0
  C  C187  1  0.11943000  0.96887000  0.34357000  1.0
  C  C188  1  0.08103000  0.73697000  0.55077000  1.0
  C  C189  1  0.45770000  0.18670000  0.67540000  1.0
  C  C190  1  0.51610000  0.21390000  0.67690000  1.0
  C  C191  1  0.32260000  0.25230000  0.88410000  1.0
  C  C192  1  0.12437000  0.52003000  0.00873000  1.0
  C  C193  1  0.18277000  0.54723000  0.01023000  1.0
  C  C194  1  0.98927000  0.58563000  0.21743000  1.0
  C  C195  1  0.79103000  0.85337000  0.34207000  1.0
  C  C196  1  0.84943000  0.88057000  0.34357000  1.0
  C  C197  1  0.65593000  0.91897000  0.55077000  1.0
  C  C198  1  0.72900000  0.54230000  0.67540000  1.0
  C  C199  1  0.69780000  0.48390000  0.67690000  1.0
  C  C200  1  0.92970000  0.67740000  0.88410000  1.0
  C  C201  1  0.39567000  0.87563000  0.00873000  1.0
  C  C202  1  0.36447000  0.81723000  0.01023000  1.0
  C  C203  1  0.59637000  0.01073000  0.21743000  1.0
  C  C204  1  0.06233000  0.20897000  0.34207000  1.0
  C  C205  1  0.03113000  0.15057000  0.34357000  1.0
  C  C206  1  0.26303000  0.34407000  0.55077000  1.0
  C  C207  1  0.72670000  0.27330000  0.67340000  1.0
  C  C208  1  0.69500000  0.30500000  0.67400000  1.0
  C  C209  1  0.39337000  0.60663000  0.00673000  1.0
  C  C210  1  0.36167000  0.63833000  0.00733000  1.0
  C  C211  1  0.06003000  0.93997000  0.34007000  1.0
  C  C212  1  0.02833000  0.97167000  0.34067000  1.0
  C  C213  1  0.72670000  0.45340000  0.67340000  1.0
  C  C214  1  0.69500000  0.39000000  0.67400000  1.0
  C  C215  1  0.39337000  0.78673000  0.00673000  1.0
  C  C216  1  0.36167000  0.72333000  0.00733000  1.0
  C  C217  1  0.06003000  0.12007000  0.34007000  1.0
  C  C218  1  0.02833000  0.05667000  0.34067000  1.0
  C  C219  1  0.54660000  0.27330000  0.67340000  1.0
  C  C220  1  0.61000000  0.30500000  0.67400000  1.0
  C  C221  1  0.21327000  0.60663000  0.00673000  1.0
  C  C222  1  0.27667000  0.63833000  0.00733000  1.0
  C  C223  1  0.87993000  0.93997000  0.34007000  1.0
  C  C224  1  0.94333000  0.97167000  0.34067000  1.0
  C  C225  1  0.27330000  0.72670000  0.32660000  1.0
  C  C226  1  0.30500000  0.69500000  0.32600000  1.0
  C  C227  1  0.93997000  0.06003000  0.65993000  1.0
  C  C228  1  0.97167000  0.02833000  0.65933000  1.0
  C  C229  1  0.60663000  0.39337000  0.99327000  1.0
  C  C230  1  0.63833000  0.36167000  0.99267000  1.0
  C  C231  1  0.45340000  0.72670000  0.32660000  1.0
  C  C232  1  0.39000000  0.69500000  0.32600000  1.0
  C  C233  1  0.12007000  0.06003000  0.65993000  1.0
  C  C234  1  0.05667000  0.02833000  0.65933000  1.0
  C  C235  1  0.78673000  0.39337000  0.99327000  1.0
  C  C236  1  0.72333000  0.36167000  0.99267000  1.0
  C  C237  1  0.27330000  0.54660000  0.32660000  1.0
  C  C238  1  0.30500000  0.61000000  0.32600000  1.0
  C  C239  1  0.93997000  0.87993000  0.65993000  1.0
  C  C240  1  0.97167000  0.94333000  0.65933000  1.0
  C  C241  1  0.60663000  0.21327000  0.99327000  1.0
  C  C242  1  0.63833000  0.27667000  0.99267000  1.0
  N  N243  1  0.89210000  0.22510000  0.81870000  1.0
  N  N244  1  0.55877000  0.55843000  0.15203000  1.0
  N  N245  1  0.22543000  0.89177000  0.48537000  1.0
  N  N246  1  0.77490000  0.66700000  0.81870000  1.0
  N  N247  1  0.44157000  0.00033000  0.15203000  1.0
  N  N248  1  0.10823000  0.33367000  0.48537000  1.0
  N  N249  1  0.33300000  0.10790000  0.81870000  1.0
  N  N250  1  0.99967000  0.44123000  0.15203000  1.0
  N  N251  1  0.66633000  0.77457000  0.48537000  1.0
  N  N252  1  0.22510000  0.89210000  0.18130000  1.0
  N  N253  1  0.89177000  0.22543000  0.51463000  1.0
  N  N254  1  0.55843000  0.55877000  0.84797000  1.0
  N  N255  1  0.66700000  0.77490000  0.18130000  1.0
  N  N256  1  0.33367000  0.10823000  0.51463000  1.0
  N  N257  1  0.00033000  0.44157000  0.84797000  1.0
  N  N258  1  0.10790000  0.33300000  0.18130000  1.0
  N  N259  1  0.77457000  0.66633000  0.51463000  1.0
  N  N260  1  0.44123000  0.99967000  0.84797000  1.0
  N  N261  1  0.10790000  0.77490000  0.18130000  1.0
  N  N262  1  0.77457000  0.10823000  0.51463000  1.0
  N  N263  1  0.44123000  0.44157000  0.84797000  1.0
  N  N264  1  0.22510000  0.33300000  0.18130000  1.0
  N  N265  1  0.89177000  0.66633000  0.51463000  1.0
  N  N266  1  0.55843000  0.99967000  0.84797000  1.0
  N  N267  1  0.66700000  0.89210000  0.18130000  1.0
  N  N268  1  0.33367000  0.22543000  0.51463000  1.0
  N  N269  1  0.00033000  0.55877000  0.84797000  1.0
  N  N270  1  0.77490000  0.10790000  0.81870000  1.0
  N  N271  1  0.44157000  0.44123000  0.15203000  1.0
  N  N272  1  0.10823000  0.77457000  0.48537000  1.0
  N  N273  1  0.33300000  0.22510000  0.81870000  1.0
  N  N274  1  0.99967000  0.55843000  0.15203000  1.0
  N  N275  1  0.66633000  0.89177000  0.48537000  1.0
  N  N276  1  0.89210000  0.66700000  0.81870000  1.0
  N  N277  1  0.55877000  0.00033000  0.15203000  1.0
  N  N278  1  0.22543000  0.33367000  0.48537000  1.0
  N  N279  1  0.63635000  0.27270000  0.67000000  1.0
  N  N280  1  0.30302000  0.60603000  0.00333000  1.0
  N  N281  1  0.96968000  0.93937000  0.33667000  1.0
  N  N282  1  0.72730000  0.36365000  0.67000000  1.0
  N  N283  1  0.39397000  0.69698000  0.00333000  1.0
  N  N284  1  0.06063000  0.03032000  0.33667000  1.0
  N  N285  1  0.63635000  0.36365000  0.67000000  1.0
  N  N286  1  0.30302000  0.69698000  0.00333000  1.0
  N  N287  1  0.96968000  0.03032000  0.33667000  1.0
  N  N288  1  0.27270000  0.63635000  0.33000000  1.0
  N  N289  1  0.93937000  0.96968000  0.66333000  1.0
  N  N290  1  0.60603000  0.30302000  0.99667000  1.0
  N  N291  1  0.36365000  0.72730000  0.33000000  1.0
  N  N292  1  0.03032000  0.06063000  0.66333000  1.0
  N  N293  1  0.69698000  0.39397000  0.99667000  1.0
  N  N294  1  0.36365000  0.63635000  0.33000000  1.0
  N  N295  1  0.03032000  0.96968000  0.66333000  1.0
  N  N296  1  0.69698000  0.30302000  0.99667000  1.0
  N  N297  1  0.78660000  0.21340000  0.67290000  1.0
  N  N298  1  0.45327000  0.54673000  0.00623000  1.0
  N  N299  1  0.11993000  0.88007000  0.33957000  1.0
  N  N300  1  0.78660000  0.57320000  0.67290000  1.0
  N  N301  1  0.45327000  0.90653000  0.00623000  1.0
  N  N302  1  0.11993000  0.23987000  0.33957000  1.0
  N  N303  1  0.42680000  0.21340000  0.67290000  1.0
  N  N304  1  0.09347000  0.54673000  0.00623000  1.0
  N  N305  1  0.76013000  0.88007000  0.33957000  1.0
  N  N306  1  0.21340000  0.78660000  0.32710000  1.0
  N  N307  1  0.88007000  0.11993000  0.66043000  1.0
  N  N308  1  0.54673000  0.45327000  0.99377000  1.0
  N  N309  1  0.57320000  0.78660000  0.32710000  1.0
  N  N310  1  0.23987000  0.11993000  0.66043000  1.0
  N  N311  1  0.90653000  0.45327000  0.99377000  1.0
  N  N312  1  0.21340000  0.42680000  0.32710000  1.0
  N  N313  1  0.88007000  0.76013000  0.66043000  1.0
  N  N314  1  0.54673000  0.09347000  0.99377000  1.0
