# generated using pymatgen
data_Cd3H14C20(N3O2)2
_symmetry_space_group_name_H-M   'P 1'
_cell_length_a   16.86000000
_cell_length_b   24.51300000
_cell_length_c   11.92000000
_cell_angle_alpha   90.00000000
_cell_angle_beta   109.39200000
_cell_angle_gamma   90.00000000
_symmetry_Int_Tables_number   1
_chemical_formula_structural   Cd3H14C20(N3O2)2
_chemical_formula_sum   'Cd12 H56 C80 N24 O16'
_cell_volume   4646.92716261
_cell_formula_units_Z   4
loop_
 _symmetry_equiv_pos_site_id
 _symmetry_equiv_pos_as_xyz
  1  'x, y, z'
loop_
 _atom_site_type_symbol
 _atom_site_label
 _atom_site_symmetry_multiplicity
 _atom_site_fract_x
 _atom_site_fract_y
 _atom_site_fract_z
 _atom_site_occupancy
  Cd  Cd0  1  0.05252000  0.13687000  0.60016000  1.0
  Cd  Cd1  1  0.00662000  0.12004000  0.86633000  1.0
  Cd  Cd2  1  0.93377000  0.12551000  0.29091000  1.0
  Cd  Cd3  1  0.94748000  0.63687000  0.89984000  1.0
  Cd  Cd4  1  0.99338000  0.62004000  0.63367000  1.0
  Cd  Cd5  1  0.06623000  0.62551000  0.20909000  1.0
  Cd  Cd6  1  0.94748000  0.86313000  0.39984000  1.0
  Cd  Cd7  1  0.99338000  0.87996000  0.13367000  1.0
  Cd  Cd8  1  0.06623000  0.87449000  0.70909000  1.0
  Cd  Cd9  1  0.05252000  0.36313000  0.10016000  1.0
  Cd  Cd10  1  0.00662000  0.37996000  0.36633000  1.0
  Cd  Cd11  1  0.93377000  0.37449000  0.79091000  1.0
  H  H12  1  0.17850000  0.23010000  0.98380000  1.0
  H  H13  1  0.28940000  0.26390000  0.14170000  1.0
  H  H14  1  0.45180000  0.19590000  0.00380000  1.0
  H  H15  1  0.34190000  0.16780000  0.84120000  1.0
  H  H16  1  0.43700000  0.27460000  0.24730000  1.0
  H  H17  1  0.54880000  0.22720000  0.15800000  1.0
  H  H18  1  0.69730000  0.23560000  0.27280000  1.0
  H  H19  1  0.80560000  0.27250000  0.42700000  1.0
  H  H20  1  0.53170000  0.31540000  0.38670000  1.0
  H  H21  1  0.63940000  0.34680000  0.54760000  1.0
  H  H22  1  0.03950000  0.97920000  0.87660000  1.0
  H  H23  1  0.09470000  0.99510000  0.58910000  1.0
  H  H24  1  0.92640000  0.26450000  0.25100000  1.0
  H  H25  1  0.03780000  0.28350000  0.58830000  1.0
  H  H26  1  0.82150000  0.73010000  0.51620000  1.0
  H  H27  1  0.71060000  0.76390000  0.35830000  1.0
  H  H28  1  0.54820000  0.69590000  0.49620000  1.0
  H  H29  1  0.65810000  0.66780000  0.65880000  1.0
  H  H30  1  0.56300000  0.77460000  0.25270000  1.0
  H  H31  1  0.45120000  0.72720000  0.34200000  1.0
  H  H32  1  0.30270000  0.73560000  0.22720000  1.0
  H  H33  1  0.19440000  0.77250000  0.07300000  1.0
  H  H34  1  0.46830000  0.81540000  0.11330000  1.0
  H  H35  1  0.36060000  0.84680000  0.95240000  1.0
  H  H36  1  0.96050000  0.47920000  0.62340000  1.0
  H  H37  1  0.90530000  0.49510000  0.91090000  1.0
  H  H38  1  0.07360000  0.76450000  0.24900000  1.0
  H  H39  1  0.96220000  0.78350000  0.91170000  1.0
  H  H40  1  0.82150000  0.76990000  0.01620000  1.0
  H  H41  1  0.71060000  0.73610000  0.85830000  1.0
  H  H42  1  0.54820000  0.80410000  0.99620000  1.0
  H  H43  1  0.65810000  0.83220000  0.15880000  1.0
  H  H44  1  0.56300000  0.72540000  0.75270000  1.0
  H  H45  1  0.45120000  0.77280000  0.84200000  1.0
  H  H46  1  0.30270000  0.76440000  0.72720000  1.0
  H  H47  1  0.19440000  0.72750000  0.57300000  1.0
  H  H48  1  0.46830000  0.68460000  0.61330000  1.0
  H  H49  1  0.36060000  0.65320000  0.45240000  1.0
  H  H50  1  0.96050000  0.02080000  0.12340000  1.0
  H  H51  1  0.90530000  0.00490000  0.41090000  1.0
  H  H52  1  0.07360000  0.73550000  0.74900000  1.0
  H  H53  1  0.96220000  0.71650000  0.41170000  1.0
  H  H54  1  0.17850000  0.26990000  0.48380000  1.0
  H  H55  1  0.28940000  0.23610000  0.64170000  1.0
  H  H56  1  0.45180000  0.30410000  0.50380000  1.0
  H  H57  1  0.34190000  0.33220000  0.34120000  1.0
  H  H58  1  0.43700000  0.22540000  0.74730000  1.0
  H  H59  1  0.54880000  0.27280000  0.65800000  1.0
  H  H60  1  0.69730000  0.26440000  0.77280000  1.0
  H  H61  1  0.80560000  0.22750000  0.92700000  1.0
  H  H62  1  0.53170000  0.18460000  0.88670000  1.0
  H  H63  1  0.63940000  0.15320000  0.04760000  1.0
  H  H64  1  0.03950000  0.52080000  0.37660000  1.0
  H  H65  1  0.09470000  0.50490000  0.08910000  1.0
  H  H66  1  0.92640000  0.23550000  0.75100000  1.0
  H  H67  1  0.03780000  0.21650000  0.08830000  1.0
  C  C68  1  0.17830000  0.17431000  0.79350000  1.0
  C  C69  1  0.24910000  0.19500000  0.89750000  1.0
  C  C70  1  0.23360000  0.22381000  0.98690000  1.0
  C  C71  1  0.30030000  0.24369000  0.08240000  1.0
  C  C72  1  0.38260000  0.23359000  0.08930000  1.0
  C  C73  1  0.39690000  0.20393000  0.99930000  1.0
  C  C74  1  0.33100000  0.18607000  0.90300000  1.0
  C  C75  1  0.45210000  0.25459000  0.19130000  1.0
  C  C76  1  0.53320000  0.24821000  0.21220000  1.0
  C  C77  1  0.60190000  0.27113000  0.31310000  1.0
  C  C78  1  0.68530000  0.25877000  0.32690000  1.0
  C  C79  1  0.75030000  0.28054000  0.41990000  1.0
  C  C80  1  0.58680000  0.30557000  0.39560000  1.0
  C  C81  1  0.80360000  0.33827000  0.60340000  1.0
  C  C82  1  0.73380000  0.31414000  0.50240000  1.0
  C  C83  1  0.65140000  0.32551000  0.49070000  1.0
  C  C84  1  0.05030000  0.99430000  0.81150000  1.0
  C  C85  1  0.08020000  0.00303000  0.65610000  1.0
  C  C86  1  0.95250000  0.25738000  0.33150000  1.0
  C  C87  1  0.01290000  0.26758000  0.51400000  1.0
  C  C88  1  0.82170000  0.67431000  0.70650000  1.0
  C  C89  1  0.75090000  0.69500000  0.60250000  1.0
  C  C90  1  0.76640000  0.72381000  0.51310000  1.0
  C  C91  1  0.69970000  0.74369000  0.41760000  1.0
  C  C92  1  0.61740000  0.73359000  0.41070000  1.0
  C  C93  1  0.60310000  0.70393000  0.50070000  1.0
  C  C94  1  0.66900000  0.68607000  0.59700000  1.0
  C  C95  1  0.54790000  0.75459000  0.30870000  1.0
  C  C96  1  0.46680000  0.74821000  0.28780000  1.0
  C  C97  1  0.39810000  0.77113000  0.18690000  1.0
  C  C98  1  0.31470000  0.75877000  0.17310000  1.0
  C  C99  1  0.24970000  0.78054000  0.08010000  1.0
  C  C100  1  0.41320000  0.80557000  0.10440000  1.0
  C  C101  1  0.19640000  0.83827000  0.89660000  1.0
  C  C102  1  0.26620000  0.81414000  0.99760000  1.0
  C  C103  1  0.34860000  0.82551000  0.00930000  1.0
  C  C104  1  0.94970000  0.49430000  0.68850000  1.0
  C  C105  1  0.91980000  0.50303000  0.84390000  1.0
  C  C106  1  0.04750000  0.75738000  0.16850000  1.0
  C  C107  1  0.98710000  0.76758000  0.98600000  1.0
  C  C108  1  0.82170000  0.82569000  0.20650000  1.0
  C  C109  1  0.75090000  0.80500000  0.10250000  1.0
  C  C110  1  0.76640000  0.77619000  0.01310000  1.0
  C  C111  1  0.69970000  0.75631000  0.91760000  1.0
  C  C112  1  0.61740000  0.76641000  0.91070000  1.0
  C  C113  1  0.60310000  0.79607000  0.00070000  1.0
  C  C114  1  0.66900000  0.81393000  0.09700000  1.0
  C  C115  1  0.54790000  0.74541000  0.80870000  1.0
  C  C116  1  0.46680000  0.75179000  0.78780000  1.0
  C  C117  1  0.39810000  0.72887000  0.68690000  1.0
  C  C118  1  0.31470000  0.74123000  0.67310000  1.0
  C  C119  1  0.24970000  0.71946000  0.58010000  1.0
  C  C120  1  0.41320000  0.69443000  0.60440000  1.0
  C  C121  1  0.19640000  0.66173000  0.39660000  1.0
  C  C122  1  0.26620000  0.68586000  0.49760000  1.0
  C  C123  1  0.34860000  0.67449000  0.50930000  1.0
  C  C124  1  0.94970000  0.00570000  0.18850000  1.0
  C  C125  1  0.91980000  0.99697000  0.34390000  1.0
  C  C126  1  0.04750000  0.74262000  0.66850000  1.0
  C  C127  1  0.98710000  0.73242000  0.48600000  1.0
  C  C128  1  0.17830000  0.32569000  0.29350000  1.0
  C  C129  1  0.24910000  0.30500000  0.39750000  1.0
  C  C130  1  0.23360000  0.27619000  0.48690000  1.0
  C  C131  1  0.30030000  0.25631000  0.58240000  1.0
  C  C132  1  0.38260000  0.26641000  0.58930000  1.0
  C  C133  1  0.39690000  0.29607000  0.49930000  1.0
  C  C134  1  0.33100000  0.31393000  0.40300000  1.0
  C  C135  1  0.45210000  0.24541000  0.69130000  1.0
  C  C136  1  0.53320000  0.25179000  0.71220000  1.0
  C  C137  1  0.60190000  0.22887000  0.81310000  1.0
  C  C138  1  0.68530000  0.24123000  0.82690000  1.0
  C  C139  1  0.75030000  0.21946000  0.91990000  1.0
  C  C140  1  0.58680000  0.19443000  0.89560000  1.0
  C  C141  1  0.80360000  0.16173000  0.10340000  1.0
  C  C142  1  0.73380000  0.18586000  0.00240000  1.0
  C  C143  1  0.65140000  0.17449000  0.99070000  1.0
  C  C144  1  0.05030000  0.50570000  0.31150000  1.0
  C  C145  1  0.08020000  0.49697000  0.15610000  1.0
  C  C146  1  0.95250000  0.24262000  0.83150000  1.0
  C  C147  1  0.01290000  0.23242000  0.01400000  1.0
  N  N148  1  0.06555000  0.05234000  0.68570000  1.0
  N  N149  1  0.04555000  0.04700000  0.78800000  1.0
  N  N150  1  0.07203000  0.96493000  0.73250000  1.0
  N  N151  1  0.96496000  0.20822000  0.37610000  1.0
  N  N152  1  0.00525000  0.21495000  0.49710000  1.0
  N  N153  1  0.98098000  0.29650000  0.41310000  1.0
  N  N154  1  0.93445000  0.55234000  0.81430000  1.0
  N  N155  1  0.95445000  0.54700000  0.71200000  1.0
  N  N156  1  0.92797000  0.46493000  0.76750000  1.0
  N  N157  1  0.03504000  0.70822000  0.12390000  1.0
  N  N158  1  0.99475000  0.71495000  0.00290000  1.0
  N  N159  1  0.01902000  0.79650000  0.08690000  1.0
  N  N160  1  0.93445000  0.94766000  0.31430000  1.0
  N  N161  1  0.95445000  0.95300000  0.21200000  1.0
  N  N162  1  0.92797000  0.03507000  0.26750000  1.0
  N  N163  1  0.03504000  0.79178000  0.62390000  1.0
  N  N164  1  0.99475000  0.78505000  0.50290000  1.0
  N  N165  1  0.01902000  0.70350000  0.58690000  1.0
  N  N166  1  0.06555000  0.44766000  0.18570000  1.0
  N  N167  1  0.04555000  0.45300000  0.28800000  1.0
  N  N168  1  0.07203000  0.53507000  0.23250000  1.0
  N  N169  1  0.96496000  0.29178000  0.87610000  1.0
  N  N170  1  0.00525000  0.28505000  0.99710000  1.0
  N  N171  1  0.98098000  0.20350000  0.91310000  1.0
  O  O172  1  0.78988000  0.35169000  0.69550000  1.0
  O  O173  1  0.87495000  0.34399000  0.59230000  1.0
  O  O174  1  0.10550000  0.17158000  0.80070000  1.0
  O  O175  1  0.19279000  0.16085000  0.70090000  1.0
  O  O176  1  0.21012000  0.85169000  0.80450000  1.0
  O  O177  1  0.12505000  0.84399000  0.90770000  1.0
  O  O178  1  0.89450000  0.67158000  0.69930000  1.0
  O  O179  1  0.80721000  0.66085000  0.79910000  1.0
  O  O180  1  0.21012000  0.64831000  0.30450000  1.0
  O  O181  1  0.12505000  0.65601000  0.40770000  1.0
  O  O182  1  0.89450000  0.82842000  0.19930000  1.0
  O  O183  1  0.80721000  0.83915000  0.29910000  1.0
  O  O184  1  0.78988000  0.14831000  0.19550000  1.0
  O  O185  1  0.87495000  0.15601000  0.09230000  1.0
  O  O186  1  0.10550000  0.32842000  0.30070000  1.0
  O  O187  1  0.19279000  0.33915000  0.20090000  1.0
