# generated using pymatgen
data_SmH12(C5O2)3
_symmetry_space_group_name_H-M   'P 1'
_cell_length_a   10.05800000
_cell_length_b   21.86000000
_cell_length_c   13.98900000
_cell_angle_alpha   91.48100000
_cell_angle_beta   90.00000000
_cell_angle_gamma   90.00000000
_symmetry_Int_Tables_number   1
_chemical_formula_structural   SmH12(C5O2)3
_chemical_formula_sum   'Sm8 H96 C120 O48'
_cell_volume   3074.70432701
_cell_formula_units_Z   8
loop_
 _symmetry_equiv_pos_site_id
 _symmetry_equiv_pos_as_xyz
  1  'x, y, z'
loop_
 _atom_site_type_symbol
 _atom_site_label
 _atom_site_symmetry_multiplicity
 _atom_site_fract_x
 _atom_site_fract_y
 _atom_site_fract_z
 _atom_site_occupancy
  Sm  Sm0  1  0.43840000  0.75971000  0.76824000  1.0
  Sm  Sm1  1  0.75039000  0.25103000  0.47348000  1.0
  Sm  Sm2  1  0.93840000  0.24029000  0.73176000  1.0
  Sm  Sm3  1  0.25039000  0.74897000  0.02652000  1.0
  Sm  Sm4  1  0.56160000  0.24029000  0.23176000  1.0
  Sm  Sm5  1  0.24961000  0.74897000  0.52652000  1.0
  Sm  Sm6  1  0.06160000  0.75971000  0.26824000  1.0
  Sm  Sm7  1  0.74961000  0.25103000  0.97348000  1.0
  H  H8  1  0.31660000  0.92190000  0.56000000  1.0
  H  H9  1  0.46380000  0.90950000  0.52950000  1.0
  H  H10  1  0.64410000  0.96680000  0.63550000  1.0
  H  H11  1  0.70470000  0.06210000  0.68520000  1.0
  H  H12  1  0.32460000  0.11450000  0.68280000  1.0
  H  H13  1  0.26720000  0.01710000  0.62590000  1.0
  H  H14  1  0.48380000  0.18510000  0.73710000  1.0
  H  H15  1  0.61880000  0.15980000  0.77600000  1.0
  H  H16  1  0.00260000  0.65830000  0.78730000  1.0
  H  H17  1  0.14350000  0.62990000  0.80490000  1.0
  H  H18  1  0.83770000  0.59590000  0.70850000  1.0
  H  H19  1  0.77230000  0.50580000  0.63420000  1.0
  H  H20  1  0.14690000  0.45430000  0.61710000  1.0
  H  H21  1  0.21290000  0.54400000  0.68820000  1.0
  H  H22  1  0.81310000  0.41450000  0.55410000  1.0
  H  H23  1  0.95570000  0.40470000  0.51230000  1.0
  H  H24  1  0.58640000  0.61660000  0.64890000  1.0
  H  H25  1  0.65160000  0.63430000  0.55150000  1.0
  H  H26  1  0.46320000  0.52400000  0.66010000  1.0
  H  H27  1  0.59480000  0.57250000  0.40560000  1.0
  H  H28  1  0.70020000  0.87750000  0.98850000  1.0
  H  H29  1  0.63370000  0.87240000  0.08950000  1.0
  H  H30  1  0.50360000  0.93160000  0.87220000  1.0
  H  H31  1  0.58230000  0.97220000  0.14580000  1.0
  H  H32  1  0.81660000  0.07810000  0.94000000  1.0
  H  H33  1  0.96380000  0.09050000  0.97050000  1.0
  H  H34  1  0.14410000  0.03320000  0.86450000  1.0
  H  H35  1  0.20470000  0.93790000  0.81480000  1.0
  H  H36  1  0.82460000  0.88550000  0.81720000  1.0
  H  H37  1  0.76720000  0.98290000  0.87410000  1.0
  H  H38  1  0.98380000  0.81490000  0.76290000  1.0
  H  H39  1  0.11880000  0.84020000  0.72400000  1.0
  H  H40  1  0.50260000  0.34170000  0.71270000  1.0
  H  H41  1  0.64350000  0.37010000  0.69510000  1.0
  H  H42  1  0.33770000  0.40410000  0.79150000  1.0
  H  H43  1  0.27230000  0.49420000  0.86580000  1.0
  H  H44  1  0.64690000  0.54570000  0.88290000  1.0
  H  H45  1  0.71290000  0.45600000  0.81180000  1.0
  H  H46  1  0.31310000  0.58550000  0.94590000  1.0
  H  H47  1  0.45570000  0.59530000  0.98770000  1.0
  H  H48  1  0.08640000  0.38340000  0.85110000  1.0
  H  H49  1  0.15160000  0.36570000  0.94850000  1.0
  H  H50  1  0.96320000  0.47600000  0.83990000  1.0
  H  H51  1  0.09480000  0.42750000  0.09440000  1.0
  H  H52  1  0.20020000  0.12250000  0.51150000  1.0
  H  H53  1  0.13370000  0.12760000  0.41050000  1.0
  H  H54  1  0.00360000  0.06840000  0.62780000  1.0
  H  H55  1  0.08230000  0.02780000  0.35420000  1.0
  H  H56  1  0.68340000  0.07810000  0.44000000  1.0
  H  H57  1  0.53620000  0.09050000  0.47050000  1.0
  H  H58  1  0.35590000  0.03320000  0.36450000  1.0
  H  H59  1  0.29530000  0.93790000  0.31480000  1.0
  H  H60  1  0.67540000  0.88550000  0.31720000  1.0
  H  H61  1  0.73280000  0.98290000  0.37410000  1.0
  H  H62  1  0.51620000  0.81490000  0.26290000  1.0
  H  H63  1  0.38120000  0.84020000  0.22400000  1.0
  H  H64  1  0.99740000  0.34170000  0.21270000  1.0
  H  H65  1  0.85650000  0.37010000  0.19510000  1.0
  H  H66  1  0.16230000  0.40410000  0.29150000  1.0
  H  H67  1  0.22770000  0.49420000  0.36580000  1.0
  H  H68  1  0.85310000  0.54570000  0.38290000  1.0
  H  H69  1  0.78710000  0.45600000  0.31180000  1.0
  H  H70  1  0.18690000  0.58550000  0.44590000  1.0
  H  H71  1  0.04430000  0.59530000  0.48770000  1.0
  H  H72  1  0.41360000  0.38340000  0.35110000  1.0
  H  H73  1  0.34840000  0.36570000  0.44850000  1.0
  H  H74  1  0.53680000  0.47600000  0.33990000  1.0
  H  H75  1  0.40520000  0.42750000  0.59440000  1.0
  H  H76  1  0.29980000  0.12250000  0.01150000  1.0
  H  H77  1  0.36630000  0.12760000  0.91050000  1.0
  H  H78  1  0.49640000  0.06840000  0.12780000  1.0
  H  H79  1  0.41770000  0.02780000  0.85420000  1.0
  H  H80  1  0.18340000  0.92190000  0.06000000  1.0
  H  H81  1  0.03620000  0.90950000  0.02950000  1.0
  H  H82  1  0.85590000  0.96680000  0.13550000  1.0
  H  H83  1  0.79530000  0.06210000  0.18520000  1.0
  H  H84  1  0.17540000  0.11450000  0.18280000  1.0
  H  H85  1  0.23280000  0.01710000  0.12590000  1.0
  H  H86  1  0.01620000  0.18510000  0.23710000  1.0
  H  H87  1  0.88120000  0.15980000  0.27600000  1.0
  H  H88  1  0.49740000  0.65830000  0.28730000  1.0
  H  H89  1  0.35650000  0.62990000  0.30490000  1.0
  H  H90  1  0.66230000  0.59590000  0.20850000  1.0
  H  H91  1  0.72770000  0.50580000  0.13420000  1.0
  H  H92  1  0.35310000  0.45430000  0.11710000  1.0
  H  H93  1  0.28710000  0.54400000  0.18820000  1.0
  H  H94  1  0.68690000  0.41450000  0.05410000  1.0
  H  H95  1  0.54430000  0.40470000  0.01230000  1.0
  H  H96  1  0.91360000  0.61660000  0.14890000  1.0
  H  H97  1  0.84840000  0.63430000  0.05150000  1.0
  H  H98  1  0.03680000  0.52400000  0.16010000  1.0
  H  H99  1  0.90520000  0.57250000  0.90560000  1.0
  H  H100  1  0.79980000  0.87750000  0.48850000  1.0
  H  H101  1  0.86630000  0.87240000  0.58950000  1.0
  H  H102  1  0.99640000  0.93160000  0.37220000  1.0
  H  H103  1  0.91770000  0.97220000  0.64580000  1.0
  C  C104  1  0.41360000  0.86860000  0.64970000  1.0
  C  C105  1  0.40700000  0.91930000  0.58380000  1.0
  C  C106  1  0.44610000  0.98110000  0.62330000  1.0
  C  C107  1  0.57880000  0.99660000  0.64360000  1.0
  C  C108  1  0.61540000  0.05350000  0.67450000  1.0
  C  C109  1  0.52210000  0.09850000  0.69010000  1.0
  C  C110  1  0.39000000  0.08500000  0.67250000  1.0
  C  C111  1  0.35610000  0.02570000  0.63850000  1.0
  C  C112  1  0.56230000  0.16150000  0.72000000  1.0
  C  C113  1  0.63430000  0.19230000  0.64260000  1.0
  C  C114  1  0.13800000  0.68190000  0.68520000  1.0
  C  C115  1  0.07810000  0.63870000  0.75620000  1.0
  C  C116  1  0.03300000  0.57890000  0.70790000  1.0
  C  C117  1  0.90140000  0.56710000  0.69040000  1.0
  C  C118  1  0.86210000  0.51270000  0.64610000  1.0
  C  C119  1  0.95120000  0.46970000  0.61980000  1.0
  C  C120  1  0.08300000  0.48290000  0.63600000  1.0
  C  C121  1  0.12280000  0.53650000  0.67890000  1.0
  C  C122  1  0.90590000  0.41010000  0.57130000  1.0
  C  C123  1  0.91970000  0.35310000  0.62670000  1.0
  C  C124  1  0.46240000  0.66390000  0.56490000  1.0
  C  C125  1  0.57060000  0.61970000  0.58080000  1.0
  C  C126  1  0.53630000  0.55590000  0.53820000  1.0
  C  C127  1  0.47880000  0.51460000  0.59590000  1.0
  C  C128  1  0.55700000  0.54320000  0.44410000  1.0
  C  C129  1  0.52630000  0.83060000  0.98400000  1.0
  C  C130  1  0.61620000  0.87920000  0.02250000  1.0
  C  C131  1  0.55410000  0.94220000  0.01170000  1.0
  C  C132  1  0.50260000  0.95930000  0.92390000  1.0
  C  C133  1  0.54950000  0.98330000  0.08660000  1.0
  C  C134  1  0.91360000  0.13140000  0.85030000  1.0
  C  C135  1  0.90700000  0.08070000  0.91620000  1.0
  C  C136  1  0.94610000  0.01890000  0.87670000  1.0
  C  C137  1  0.07880000  0.00340000  0.85640000  1.0
  C  C138  1  0.11540000  0.94650000  0.82550000  1.0
  C  C139  1  0.02210000  0.90150000  0.80990000  1.0
  C  C140  1  0.89000000  0.91500000  0.82750000  1.0
  C  C141  1  0.85610000  0.97430000  0.86150000  1.0
  C  C142  1  0.06230000  0.83850000  0.78000000  1.0
  C  C143  1  0.13430000  0.80770000  0.85740000  1.0
  C  C144  1  0.63800000  0.31810000  0.81480000  1.0
  C  C145  1  0.57810000  0.36130000  0.74380000  1.0
  C  C146  1  0.53300000  0.42110000  0.79210000  1.0
  C  C147  1  0.40140000  0.43290000  0.80960000  1.0
  C  C148  1  0.36210000  0.48730000  0.85390000  1.0
  C  C149  1  0.45120000  0.53030000  0.88020000  1.0
  C  C150  1  0.58300000  0.51710000  0.86400000  1.0
  C  C151  1  0.62280000  0.46350000  0.82110000  1.0
  C  C152  1  0.40590000  0.58990000  0.92870000  1.0
  C  C153  1  0.41970000  0.64690000  0.87330000  1.0
  C  C154  1  0.96240000  0.33610000  0.93510000  1.0
  C  C155  1  0.07060000  0.38030000  0.91920000  1.0
  C  C156  1  0.03630000  0.44410000  0.96180000  1.0
  C  C157  1  0.97880000  0.48540000  0.90410000  1.0
  C  C158  1  0.05700000  0.45680000  0.05590000  1.0
  C  C159  1  0.02630000  0.16940000  0.51600000  1.0
  C  C160  1  0.11620000  0.12080000  0.47750000  1.0
  C  C161  1  0.05410000  0.05780000  0.48830000  1.0
  C  C162  1  0.00260000  0.04070000  0.57610000  1.0
  C  C163  1  0.04950000  0.01670000  0.41340000  1.0
  C  C164  1  0.58640000  0.13140000  0.35030000  1.0
  C  C165  1  0.59300000  0.08070000  0.41620000  1.0
  C  C166  1  0.55390000  0.01890000  0.37670000  1.0
  C  C167  1  0.42120000  0.00340000  0.35640000  1.0
  C  C168  1  0.38460000  0.94650000  0.32550000  1.0
  C  C169  1  0.47790000  0.90150000  0.30990000  1.0
  C  C170  1  0.61000000  0.91500000  0.32750000  1.0
  C  C171  1  0.64390000  0.97430000  0.36150000  1.0
  C  C172  1  0.43770000  0.83850000  0.28000000  1.0
  C  C173  1  0.36570000  0.80770000  0.35740000  1.0
  C  C174  1  0.86200000  0.31810000  0.31480000  1.0
  C  C175  1  0.92190000  0.36130000  0.24380000  1.0
  C  C176  1  0.96700000  0.42110000  0.29210000  1.0
  C  C177  1  0.09860000  0.43290000  0.30960000  1.0
  C  C178  1  0.13790000  0.48730000  0.35390000  1.0
  C  C179  1  0.04880000  0.53030000  0.38020000  1.0
  C  C180  1  0.91700000  0.51710000  0.36400000  1.0
  C  C181  1  0.87720000  0.46350000  0.32110000  1.0
  C  C182  1  0.09410000  0.58990000  0.42870000  1.0
  C  C183  1  0.08030000  0.64690000  0.37330000  1.0
  C  C184  1  0.53760000  0.33610000  0.43510000  1.0
  C  C185  1  0.42940000  0.38030000  0.41920000  1.0
  C  C186  1  0.46370000  0.44410000  0.46180000  1.0
  C  C187  1  0.52120000  0.48540000  0.40410000  1.0
  C  C188  1  0.44300000  0.45680000  0.55590000  1.0
  C  C189  1  0.47370000  0.16940000  0.01600000  1.0
  C  C190  1  0.38380000  0.12080000  0.97750000  1.0
  C  C191  1  0.44590000  0.05780000  0.98830000  1.0
  C  C192  1  0.49740000  0.04070000  0.07610000  1.0
  C  C193  1  0.45050000  0.01670000  0.91340000  1.0
  C  C194  1  0.08640000  0.86860000  0.14970000  1.0
  C  C195  1  0.09300000  0.91930000  0.08380000  1.0
  C  C196  1  0.05390000  0.98110000  0.12330000  1.0
  C  C197  1  0.92120000  0.99660000  0.14360000  1.0
  C  C198  1  0.88460000  0.05350000  0.17450000  1.0
  C  C199  1  0.97790000  0.09850000  0.19010000  1.0
  C  C200  1  0.11000000  0.08500000  0.17250000  1.0
  C  C201  1  0.14390000  0.02570000  0.13850000  1.0
  C  C202  1  0.93770000  0.16150000  0.22000000  1.0
  C  C203  1  0.86570000  0.19230000  0.14260000  1.0
  C  C204  1  0.36200000  0.68190000  0.18520000  1.0
  C  C205  1  0.42190000  0.63870000  0.25620000  1.0
  C  C206  1  0.46700000  0.57890000  0.20790000  1.0
  C  C207  1  0.59860000  0.56710000  0.19040000  1.0
  C  C208  1  0.63790000  0.51270000  0.14610000  1.0
  C  C209  1  0.54880000  0.46970000  0.11980000  1.0
  C  C210  1  0.41700000  0.48290000  0.13600000  1.0
  C  C211  1  0.37720000  0.53650000  0.17890000  1.0
  C  C212  1  0.59410000  0.41010000  0.07130000  1.0
  C  C213  1  0.58030000  0.35310000  0.12670000  1.0
  C  C214  1  0.03760000  0.66390000  0.06490000  1.0
  C  C215  1  0.92940000  0.61970000  0.08080000  1.0
  C  C216  1  0.96370000  0.55590000  0.03820000  1.0
  C  C217  1  0.02120000  0.51460000  0.09590000  1.0
  C  C218  1  0.94300000  0.54320000  0.94410000  1.0
  C  C219  1  0.97370000  0.83060000  0.48400000  1.0
  C  C220  1  0.88380000  0.87920000  0.52250000  1.0
  C  C221  1  0.94590000  0.94220000  0.51170000  1.0
  C  C222  1  0.99740000  0.95930000  0.42390000  1.0
  C  C223  1  0.95050000  0.98330000  0.58660000  1.0
  O  O224  1  0.33340000  0.82510000  0.63570000  1.0
  O  O225  1  0.49310000  0.86490000  0.71710000  1.0
  O  O226  1  0.57200000  0.21710000  0.57660000  1.0
  O  O227  1  0.75970000  0.19160000  0.63820000  1.0
  O  O228  1  0.23460000  0.71490000  0.70680000  1.0
  O  O229  1  0.08210000  0.68770000  0.60450000  1.0
  O  O230  1  0.86690000  0.30400000  0.59710000  1.0
  O  O231  1  0.98150000  0.35060000  0.70460000  1.0
  O  O232  1  0.47290000  0.71770000  0.60790000  1.0
  O  O233  1  0.36840000  0.65410000  0.51330000  1.0
  O  O234  1  0.54690000  0.80710000  0.90350000  1.0
  O  O235  1  0.43180000  0.81450000  0.03640000  1.0
  O  O236  1  0.83340000  0.17490000  0.86430000  1.0
  O  O237  1  0.99310000  0.13510000  0.78290000  1.0
  O  O238  1  0.07200000  0.78290000  0.92340000  1.0
  O  O239  1  0.25970000  0.80840000  0.86180000  1.0
  O  O240  1  0.73460000  0.28510000  0.79320000  1.0
  O  O241  1  0.58210000  0.31230000  0.89550000  1.0
  O  O242  1  0.36690000  0.69600000  0.90290000  1.0
  O  O243  1  0.48150000  0.64940000  0.79540000  1.0
  O  O244  1  0.97290000  0.28230000  0.89210000  1.0
  O  O245  1  0.86840000  0.34590000  0.98670000  1.0
  O  O246  1  0.04690000  0.19290000  0.59650000  1.0
  O  O247  1  0.93180000  0.18550000  0.46360000  1.0
  O  O248  1  0.66666667  0.17490000  0.36430000  1.0
  O  O249  1  0.50690000  0.13510000  0.28290000  1.0
  O  O250  1  0.42800000  0.78290000  0.42340000  1.0
  O  O251  1  0.24030000  0.80840000  0.36180000  1.0
  O  O252  1  0.76540000  0.28510000  0.29320000  1.0
  O  O253  1  0.91790000  0.31230000  0.39550000  1.0
  O  O254  1  0.13310000  0.69600000  0.40290000  1.0
  O  O255  1  0.01850000  0.64940000  0.29540000  1.0
  O  O256  1  0.52710000  0.28230000  0.39210000  1.0
  O  O257  1  0.63160000  0.34590000  0.48670000  1.0
  O  O258  1  0.45310000  0.19290000  0.09650000  1.0
  O  O259  1  0.56820000  0.18550000  0.96360000  1.0
  O  O260  1  0.16660000  0.82510000  0.13570000  1.0
  O  O261  1  0.00690000  0.86490000  0.21710000  1.0
  O  O262  1  0.92800000  0.21710000  0.07660000  1.0
  O  O263  1  0.74030000  0.19160000  0.13820000  1.0
  O  O264  1  0.26540000  0.71490000  0.20680000  1.0
  O  O265  1  0.41790000  0.68770000  0.10450000  1.0
  O  O266  1  0.63310000  0.30400000  0.09710000  1.0
  O  O267  1  0.51850000  0.35060000  0.20460000  1.0
  O  O268  1  0.02710000  0.71770000  0.10790000  1.0
  O  O269  1  0.13160000  0.65410000  0.01330000  1.0
  O  O270  1  0.95310000  0.80710000  0.40350000  1.0
  O  O271  1  0.06820000  0.81450000  0.53640000  1.0
