# generated using pymatgen
data_CdH10C13S(NO)4
_symmetry_space_group_name_H-M   'P 1'
_cell_length_a   9.50950000
_cell_length_b   19.84000000
_cell_length_c   21.03500000
_cell_angle_alpha   90.00000000
_cell_angle_beta   90.00000000
_cell_angle_gamma   90.00000000
_symmetry_Int_Tables_number   1
_chemical_formula_structural   CdH10C13S(NO)4
_chemical_formula_sum   'Cd8 H80 C104 S8 N32 O32'
_cell_volume   3968.64147680
_cell_formula_units_Z   8
loop_
 _symmetry_equiv_pos_site_id
 _symmetry_equiv_pos_as_xyz
  1  'x, y, z'
loop_
 _atom_site_type_symbol
 _atom_site_label
 _atom_site_symmetry_multiplicity
 _atom_site_fract_x
 _atom_site_fract_y
 _atom_site_fract_z
 _atom_site_occupancy
  Cd  Cd0  1  0.50754000  0.55346000  0.42614000  1.0
  Cd  Cd1  1  0.49246000  0.05346000  0.07386000  1.0
  Cd  Cd2  1  0.00754000  0.55346000  0.07386000  1.0
  Cd  Cd3  1  0.99246000  0.05346000  0.42614000  1.0
  Cd  Cd4  1  0.99246000  0.44654000  0.92614000  1.0
  Cd  Cd5  1  0.00754000  0.94654000  0.57386000  1.0
  Cd  Cd6  1  0.49246000  0.44654000  0.57386000  1.0
  Cd  Cd7  1  0.50754000  0.94654000  0.92614000  1.0
  H  H8  1  0.47530000  0.30920000  0.46580000  1.0
  H  H9  1  0.57610000  0.19620000  0.46340000  1.0
  H  H10  1  0.37240000  0.44950000  0.31410000  1.0
  H  H11  1  0.32700000  0.47320000  0.20240000  1.0
  H  H12  1  0.55590000  0.62020000  0.27470000  1.0
  H  H13  1  0.46240000  0.64090000  0.16240000  1.0
  H  H14  1  0.35810000  0.58710000  0.13460000  1.0
  H  H15  1  0.47660000  0.47990000  0.07610000  1.0
  H  H16  1  0.70810000  0.46570000  0.02830000  1.0
  H  H17  1  0.72020000  0.63070000  0.12960000  1.0
  H  H18  1  0.52470000  0.80920000  0.03420000  1.0
  H  H19  1  0.42390000  0.69620000  0.03660000  1.0
  H  H20  1  0.62760000  0.94950000  0.18590000  1.0
  H  H21  1  0.67300000  0.97320000  0.29760000  1.0
  H  H22  1  0.44410000  0.12020000  0.22530000  1.0
  H  H23  1  0.53760000  0.14090000  0.33760000  1.0
  H  H24  1  0.64190000  0.08710000  0.36540000  1.0
  H  H25  1  0.52340000  0.97990000  0.42390000  1.0
  H  H26  1  0.29190000  0.96570000  0.47170000  1.0
  H  H27  1  0.27980000  0.13070000  0.37040000  1.0
  H  H28  1  0.97530000  0.30920000  0.03420000  1.0
  H  H29  1  0.07610000  0.19620000  0.03660000  1.0
  H  H30  1  0.87240000  0.44950000  0.18590000  1.0
  H  H31  1  0.82700000  0.47320000  0.29760000  1.0
  H  H32  1  0.05590000  0.62020000  0.22530000  1.0
  H  H33  1  0.96240000  0.64090000  0.33760000  1.0
  H  H34  1  0.85810000  0.58710000  0.36540000  1.0
  H  H35  1  0.97660000  0.47990000  0.42390000  1.0
  H  H36  1  0.20810000  0.46570000  0.47170000  1.0
  H  H37  1  0.22020000  0.63070000  0.37040000  1.0
  H  H38  1  0.02470000  0.80920000  0.46580000  1.0
  H  H39  1  0.92390000  0.69620000  0.46340000  1.0
  H  H40  1  0.12760000  0.94950000  0.31410000  1.0
  H  H41  1  0.17300000  0.97320000  0.20240000  1.0
  H  H42  1  0.94410000  0.12020000  0.27470000  1.0
  H  H43  1  0.03760000  0.14090000  0.16240000  1.0
  H  H44  1  0.14190000  0.08710000  0.13460000  1.0
  H  H45  1  0.02340000  0.97990000  0.07610000  1.0
  H  H46  1  0.79190000  0.96570000  0.02830000  1.0
  H  H47  1  0.77980000  0.13070000  0.12960000  1.0
  H  H48  1  0.02470000  0.69080000  0.96580000  1.0
  H  H49  1  0.92390000  0.80380000  0.96340000  1.0
  H  H50  1  0.12760000  0.55050000  0.81410000  1.0
  H  H51  1  0.17300000  0.52680000  0.70240000  1.0
  H  H52  1  0.94410000  0.37980000  0.77470000  1.0
  H  H53  1  0.03760000  0.35910000  0.66240000  1.0
  H  H54  1  0.14190000  0.41290000  0.63460000  1.0
  H  H55  1  0.02340000  0.52010000  0.57610000  1.0
  H  H56  1  0.79190000  0.53430000  0.52830000  1.0
  H  H57  1  0.77980000  0.36930000  0.62960000  1.0
  H  H58  1  0.97530000  0.19080000  0.53420000  1.0
  H  H59  1  0.07610000  0.30380000  0.53660000  1.0
  H  H60  1  0.87240000  0.05050000  0.68590000  1.0
  H  H61  1  0.82700000  0.02680000  0.79760000  1.0
  H  H62  1  0.05590000  0.87980000  0.72530000  1.0
  H  H63  1  0.96240000  0.85910000  0.83760000  1.0
  H  H64  1  0.85810000  0.91290000  0.86540000  1.0
  H  H65  1  0.97660000  0.02010000  0.92390000  1.0
  H  H66  1  0.20810000  0.03430000  0.97170000  1.0
  H  H67  1  0.22020000  0.86930000  0.87040000  1.0
  H  H68  1  0.52470000  0.69080000  0.53420000  1.0
  H  H69  1  0.42390000  0.80380000  0.53660000  1.0
  H  H70  1  0.62760000  0.55050000  0.68590000  1.0
  H  H71  1  0.67300000  0.52680000  0.79760000  1.0
  H  H72  1  0.44410000  0.37980000  0.72530000  1.0
  H  H73  1  0.53760000  0.35910000  0.83760000  1.0
  H  H74  1  0.64190000  0.41290000  0.86540000  1.0
  H  H75  1  0.52340000  0.52010000  0.92390000  1.0
  H  H76  1  0.29190000  0.53430000  0.97170000  1.0
  H  H77  1  0.27980000  0.36930000  0.87040000  1.0
  H  H78  1  0.47530000  0.19080000  0.96580000  1.0
  H  H79  1  0.57610000  0.30380000  0.96340000  1.0
  H  H80  1  0.37240000  0.05050000  0.81410000  1.0
  H  H81  1  0.32700000  0.02680000  0.70240000  1.0
  H  H82  1  0.55590000  0.87980000  0.77470000  1.0
  H  H83  1  0.46240000  0.85910000  0.66240000  1.0
  H  H84  1  0.35810000  0.91290000  0.63460000  1.0
  H  H85  1  0.47660000  0.02010000  0.57610000  1.0
  H  H86  1  0.70810000  0.03430000  0.52830000  1.0
  H  H87  1  0.72020000  0.86930000  0.62960000  1.0
  C  C88  1  0.65820000  0.34819000  0.43311000  1.0
  C  C89  1  0.56670000  0.30010000  0.45273000  1.0
  C  C90  1  0.62490000  0.23470000  0.45120000  1.0
  C  C91  1  0.75880000  0.23396000  0.43012000  1.0
  C  C92  1  0.85380000  0.17445000  0.42251000  1.0
  C  C93  1  0.63540000  0.42222000  0.42909000  1.0
  C  C94  1  0.40390000  0.48720000  0.29210000  1.0
  C  C95  1  0.37840000  0.49980000  0.23050000  1.0
  C  C96  1  0.50450000  0.58050000  0.27107000  1.0
  C  C97  1  0.44760000  0.59300000  0.15604000  1.0
  C  C98  1  0.55360000  0.50830000  0.08093000  1.0
  C  C99  1  0.68170000  0.50090000  0.05495000  1.0
  C  C100  1  0.68940000  0.59130000  0.11022000  1.0
  C  C101  1  0.34180000  0.84819000  0.06689000  1.0
  C  C102  1  0.43330000  0.80010000  0.04727000  1.0
  C  C103  1  0.37510000  0.73470000  0.04880000  1.0
  C  C104  1  0.24120000  0.73396000  0.06988000  1.0
  C  C105  1  0.14620000  0.67445000  0.07749000  1.0
  C  C106  1  0.36460000  0.92222000  0.07091000  1.0
  C  C107  1  0.59610000  0.98720000  0.20790000  1.0
  C  C108  1  0.62160000  0.99980000  0.26950000  1.0
  C  C109  1  0.49550000  0.08050000  0.22893000  1.0
  C  C110  1  0.55240000  0.09300000  0.34396000  1.0
  C  C111  1  0.44640000  0.00830000  0.41907000  1.0
  C  C112  1  0.31830000  0.00090000  0.44505000  1.0
  C  C113  1  0.31060000  0.09130000  0.38978000  1.0
  C  C114  1  0.15820000  0.34819000  0.06689000  1.0
  C  C115  1  0.06670000  0.30010000  0.04727000  1.0
  C  C116  1  0.12490000  0.23470000  0.04880000  1.0
  C  C117  1  0.25880000  0.23396000  0.06988000  1.0
  C  C118  1  0.35380000  0.17445000  0.07749000  1.0
  C  C119  1  0.13540000  0.42222000  0.07091000  1.0
  C  C120  1  0.90390000  0.48720000  0.20790000  1.0
  C  C121  1  0.87840000  0.49980000  0.26950000  1.0
  C  C122  1  0.00450000  0.58050000  0.22893000  1.0
  C  C123  1  0.94760000  0.59300000  0.34396000  1.0
  C  C124  1  0.05360000  0.50830000  0.41907000  1.0
  C  C125  1  0.18170000  0.50090000  0.44505000  1.0
  C  C126  1  0.18940000  0.59130000  0.38978000  1.0
  C  C127  1  0.84180000  0.84819000  0.43311000  1.0
  C  C128  1  0.93330000  0.80010000  0.45273000  1.0
  C  C129  1  0.87510000  0.73470000  0.45120000  1.0
  C  C130  1  0.74120000  0.73396000  0.43012000  1.0
  C  C131  1  0.64620000  0.67445000  0.42251000  1.0
  C  C132  1  0.86460000  0.92222000  0.42909000  1.0
  C  C133  1  0.09610000  0.98720000  0.29210000  1.0
  C  C134  1  0.12160000  0.99980000  0.23050000  1.0
  C  C135  1  0.99550000  0.08050000  0.27107000  1.0
  C  C136  1  0.05240000  0.09300000  0.15604000  1.0
  C  C137  1  0.94640000  0.00830000  0.08093000  1.0
  C  C138  1  0.81830000  0.00090000  0.05495000  1.0
  C  C139  1  0.81060000  0.09130000  0.11022000  1.0
  C  C140  1  0.84180000  0.65181000  0.93311000  1.0
  C  C141  1  0.93330000  0.69990000  0.95273000  1.0
  C  C142  1  0.87510000  0.76530000  0.95120000  1.0
  C  C143  1  0.74120000  0.76604000  0.93012000  1.0
  C  C144  1  0.64620000  0.82555000  0.92251000  1.0
  C  C145  1  0.86460000  0.57778000  0.92909000  1.0
  C  C146  1  0.09610000  0.51280000  0.79210000  1.0
  C  C147  1  0.12160000  0.50020000  0.73050000  1.0
  C  C148  1  0.99550000  0.41950000  0.77107000  1.0
  C  C149  1  0.05240000  0.40700000  0.65604000  1.0
  C  C150  1  0.94640000  0.49170000  0.58093000  1.0
  C  C151  1  0.81830000  0.49910000  0.55495000  1.0
  C  C152  1  0.81060000  0.40870000  0.61022000  1.0
  C  C153  1  0.15820000  0.15181000  0.56689000  1.0
  C  C154  1  0.06670000  0.19990000  0.54727000  1.0
  C  C155  1  0.12490000  0.26530000  0.54880000  1.0
  C  C156  1  0.25880000  0.26604000  0.56988000  1.0
  C  C157  1  0.35380000  0.32555000  0.57749000  1.0
  C  C158  1  0.13540000  0.07778000  0.57091000  1.0
  C  C159  1  0.90390000  0.01280000  0.70790000  1.0
  C  C160  1  0.87840000  0.00020000  0.76950000  1.0
  C  C161  1  0.00450000  0.91950000  0.72893000  1.0
  C  C162  1  0.94760000  0.90700000  0.84396000  1.0
  C  C163  1  0.05360000  0.99170000  0.91907000  1.0
  C  C164  1  0.18170000  0.99910000  0.94505000  1.0
  C  C165  1  0.18940000  0.90870000  0.88978000  1.0
  C  C166  1  0.34180000  0.65181000  0.56689000  1.0
  C  C167  1  0.43330000  0.69990000  0.54727000  1.0
  C  C168  1  0.37510000  0.76530000  0.54880000  1.0
  C  C169  1  0.24120000  0.76604000  0.56988000  1.0
  C  C170  1  0.14620000  0.82555000  0.57749000  1.0
  C  C171  1  0.36460000  0.57778000  0.57091000  1.0
  C  C172  1  0.59610000  0.51280000  0.70790000  1.0
  C  C173  1  0.62160000  0.50020000  0.76950000  1.0
  C  C174  1  0.49550000  0.41950000  0.72893000  1.0
  C  C175  1  0.55240000  0.40700000  0.84396000  1.0
  C  C176  1  0.44640000  0.49170000  0.91907000  1.0
  C  C177  1  0.31830000  0.49910000  0.94505000  1.0
  C  C178  1  0.31060000  0.40870000  0.88978000  1.0
  C  C179  1  0.65820000  0.15181000  0.93311000  1.0
  C  C180  1  0.56670000  0.19990000  0.95273000  1.0
  C  C181  1  0.62490000  0.26530000  0.95120000  1.0
  C  C182  1  0.75880000  0.26604000  0.93012000  1.0
  C  C183  1  0.85380000  0.32555000  0.92251000  1.0
  C  C184  1  0.63540000  0.07778000  0.92909000  1.0
  C  C185  1  0.40390000  0.01280000  0.79210000  1.0
  C  C186  1  0.37840000  0.00020000  0.73050000  1.0
  C  C187  1  0.50450000  0.91950000  0.77107000  1.0
  C  C188  1  0.44760000  0.90700000  0.65604000  1.0
  C  C189  1  0.55360000  0.99170000  0.58093000  1.0
  C  C190  1  0.68170000  0.99910000  0.55495000  1.0
  C  C191  1  0.68940000  0.90870000  0.61022000  1.0
  S  S192  1  0.81767000  0.31384000  0.41213000  1.0
  S  S193  1  0.18233000  0.81384000  0.08787000  1.0
  S  S194  1  0.31767000  0.31384000  0.08787000  1.0
  S  S195  1  0.68233000  0.81384000  0.41213000  1.0
  S  S196  1  0.68233000  0.68616000  0.91213000  1.0
  S  S197  1  0.31767000  0.18616000  0.58787000  1.0
  S  S198  1  0.18233000  0.68616000  0.58787000  1.0
  S  S199  1  0.81767000  0.18616000  0.91213000  1.0
  N  N200  1  0.48300000  0.53803000  0.31789000  1.0
  N  N201  1  0.44310000  0.55940000  0.21755000  1.0
  N  N202  1  0.56000000  0.56616000  0.11603000  1.0
  N  N203  1  0.76800000  0.55277000  0.07328000  1.0
  N  N204  1  0.51700000  0.03803000  0.18211000  1.0
  N  N205  1  0.55690000  0.05940000  0.28245000  1.0
  N  N206  1  0.44000000  0.06616000  0.38397000  1.0
  N  N207  1  0.23200000  0.05277000  0.42672000  1.0
  N  N208  1  0.98300000  0.53803000  0.18211000  1.0
  N  N209  1  0.94310000  0.55940000  0.28245000  1.0
  N  N210  1  0.06000000  0.56616000  0.38397000  1.0
  N  N211  1  0.26800000  0.55277000  0.42672000  1.0
  N  N212  1  0.01700000  0.03803000  0.31789000  1.0
  N  N213  1  0.05690000  0.05940000  0.21755000  1.0
  N  N214  1  0.94000000  0.06616000  0.11603000  1.0
  N  N215  1  0.73200000  0.05277000  0.07328000  1.0
  N  N216  1  0.01700000  0.46197000  0.81789000  1.0
  N  N217  1  0.05690000  0.44060000  0.71755000  1.0
  N  N218  1  0.94000000  0.43384000  0.61603000  1.0
  N  N219  1  0.73200000  0.44723000  0.57328000  1.0
  N  N220  1  0.98300000  0.96197000  0.68211000  1.0
  N  N221  1  0.94310000  0.94060000  0.78245000  1.0
  N  N222  1  0.06000000  0.93384000  0.88397000  1.0
  N  N223  1  0.26800000  0.94723000  0.92672000  1.0
  N  N224  1  0.51700000  0.46197000  0.68211000  1.0
  N  N225  1  0.55690000  0.44060000  0.78245000  1.0
  N  N226  1  0.44000000  0.43384000  0.88397000  1.0
  N  N227  1  0.23200000  0.44723000  0.92672000  1.0
  N  N228  1  0.48300000  0.96197000  0.81789000  1.0
  N  N229  1  0.44310000  0.94060000  0.71755000  1.0
  N  N230  1  0.56000000  0.93384000  0.61603000  1.0
  N  N231  1  0.76800000  0.94723000  0.57328000  1.0
  O  O232  1  0.97110000  0.18115000  0.39812000  1.0
  O  O233  1  0.80600000  0.11891000  0.44272000  1.0
  O  O234  1  0.72150000  0.45827000  0.40205000  1.0
  O  O235  1  0.52100000  0.44353000  0.45464000  1.0
  O  O236  1  0.02890000  0.68115000  0.10188000  1.0
  O  O237  1  0.19400000  0.61891000  0.05728000  1.0
  O  O238  1  0.27850000  0.95827000  0.09795000  1.0
  O  O239  1  0.47900000  0.94353000  0.04536000  1.0
  O  O240  1  0.47110000  0.18115000  0.10188000  1.0
  O  O241  1  0.30600000  0.11891000  0.05728000  1.0
  O  O242  1  0.22150000  0.45827000  0.09795000  1.0
  O  O243  1  0.02100000  0.44353000  0.04536000  1.0
  O  O244  1  0.52890000  0.68115000  0.39812000  1.0
  O  O245  1  0.69400000  0.61891000  0.44272000  1.0
  O  O246  1  0.77850000  0.95827000  0.40205000  1.0
  O  O247  1  0.97900000  0.94353000  0.45464000  1.0
  O  O248  1  0.52890000  0.81885000  0.89812000  1.0
  O  O249  1  0.69400000  0.88109000  0.94272000  1.0
  O  O250  1  0.77850000  0.54173000  0.90205000  1.0
  O  O251  1  0.97900000  0.55647000  0.95464000  1.0
  O  O252  1  0.47110000  0.31885000  0.60188000  1.0
  O  O253  1  0.30600000  0.38109000  0.55728000  1.0
  O  O254  1  0.22150000  0.04173000  0.59795000  1.0
  O  O255  1  0.02100000  0.05647000  0.54536000  1.0
  O  O256  1  0.02890000  0.81885000  0.60188000  1.0
  O  O257  1  0.19400000  0.88109000  0.55728000  1.0
  O  O258  1  0.27850000  0.54173000  0.59795000  1.0
  O  O259  1  0.47900000  0.55647000  0.54536000  1.0
  O  O260  1  0.97110000  0.31885000  0.89812000  1.0
  O  O261  1  0.80600000  0.38109000  0.94272000  1.0
  O  O262  1  0.72150000  0.04173000  0.90205000  1.0
  O  O263  1  0.52100000  0.05647000  0.95464000  1.0
