# generated using pymatgen
data_ZnCrH18C14(N2O)2
_symmetry_space_group_name_H-M   'P 1'
_cell_length_a   13.85000000
_cell_length_b   12.77000000
_cell_length_c   6.93900000
_cell_angle_alpha   90.00000000
_cell_angle_beta   91.45000000
_cell_angle_gamma   90.00000000
_symmetry_Int_Tables_number   1
_chemical_formula_structural   ZnCrH18C14(N2O)2
_chemical_formula_sum   'Zn2 Cr2 H36 C28 N8 O4'
_cell_volume   1226.86978127
_cell_formula_units_Z   2
loop_
 _symmetry_equiv_pos_site_id
 _symmetry_equiv_pos_as_xyz
  1  'x, y, z'
loop_
 _atom_site_type_symbol
 _atom_site_label
 _atom_site_symmetry_multiplicity
 _atom_site_fract_x
 _atom_site_fract_y
 _atom_site_fract_z
 _atom_site_occupancy
  Zn  Zn0  1  0.00000000  0.88497000  0.50000000  1.0
  Zn  Zn1  1  0.50000000  0.38497000  0.50000000  1.0
  Cr  Cr2  1  0.00000000  0.80964000  0.00000000  1.0
  Cr  Cr3  1  0.50000000  0.30964000  0.00000000  1.0
  H  H4  1  0.94560000  0.65500000  0.32280000  1.0
  H  H5  1  0.91390000  0.59840000  0.51200000  1.0
  H  H6  1  0.81450000  0.78370000  0.28700000  1.0
  H  H7  1  0.77270000  0.83300000  0.47390000  1.0
  H  H8  1  0.71270000  0.65130000  0.15860000  1.0
  H  H9  1  0.61430000  0.50810000  0.19180000  1.0
  H  H10  1  0.63090000  0.52860000  0.74460000  1.0
  H  H11  1  0.72690000  0.67590000  0.72640000  1.0
  H  H12  1  0.88510000  0.74790000  0.65120000  1.0
  H  H13  1  0.44560000  0.15500000  0.32280000  1.0
  H  H14  1  0.41390000  0.09840000  0.51200000  1.0
  H  H15  1  0.31450000  0.28370000  0.28700000  1.0
  H  H16  1  0.27270000  0.33300000  0.47390000  1.0
  H  H17  1  0.21270000  0.15130000  0.15860000  1.0
  H  H18  1  0.11430000  0.00810000  0.19180000  1.0
  H  H19  1  0.13090000  0.02860000  0.74460000  1.0
  H  H20  1  0.22690000  0.17590000  0.72640000  1.0
  H  H21  1  0.38510000  0.24790000  0.65120000  1.0
  H  H22  1  0.05440000  0.65500000  0.67720000  1.0
  H  H23  1  0.08610000  0.59840000  0.48800000  1.0
  H  H24  1  0.18550000  0.78370000  0.71300000  1.0
  H  H25  1  0.22730000  0.83300000  0.52610000  1.0
  H  H26  1  0.28730000  0.65130000  0.84140000  1.0
  H  H27  1  0.38570000  0.50810000  0.80820000  1.0
  H  H28  1  0.36910000  0.52860000  0.25540000  1.0
  H  H29  1  0.27310000  0.67590000  0.27360000  1.0
  H  H30  1  0.11490000  0.74790000  0.34880000  1.0
  H  H31  1  0.55440000  0.15500000  0.67720000  1.0
  H  H32  1  0.58610000  0.09840000  0.48800000  1.0
  H  H33  1  0.68550000  0.28370000  0.71300000  1.0
  H  H34  1  0.72730000  0.33300000  0.52610000  1.0
  H  H35  1  0.78730000  0.15130000  0.84140000  1.0
  H  H36  1  0.88570000  0.00810000  0.80820000  1.0
  H  H37  1  0.86910000  0.02860000  0.25540000  1.0
  H  H38  1  0.77310000  0.17590000  0.27360000  1.0
  H  H39  1  0.61490000  0.24790000  0.34880000  1.0
  C  C40  1  0.94720000  0.65920000  0.46240000  1.0
  C  C41  1  0.80320000  0.77100000  0.42240000  1.0
  C  C42  1  0.73510000  0.68020000  0.43900000  1.0
  C  C43  1  0.69740000  0.62870000  0.28160000  1.0
  C  C44  1  0.63620000  0.54270000  0.30260000  1.0
  C  C45  1  0.64520000  0.55470000  0.62340000  1.0
  C  C46  1  0.70610000  0.64280000  0.61340000  1.0
  C  C47  1  0.44720000  0.15920000  0.46240000  1.0
  C  C48  1  0.30320000  0.27100000  0.42240000  1.0
  C  C49  1  0.23510000  0.18020000  0.43900000  1.0
  C  C50  1  0.19740000  0.12870000  0.28160000  1.0
  C  C51  1  0.13620000  0.04270000  0.30260000  1.0
  C  C52  1  0.14520000  0.05470000  0.62340000  1.0
  C  C53  1  0.20610000  0.14280000  0.61340000  1.0
  C  C54  1  0.05280000  0.65920000  0.53760000  1.0
  C  C55  1  0.19680000  0.77100000  0.57760000  1.0
  C  C56  1  0.26490000  0.68020000  0.56100000  1.0
  C  C57  1  0.30260000  0.62870000  0.71840000  1.0
  C  C58  1  0.36380000  0.54270000  0.69740000  1.0
  C  C59  1  0.35480000  0.55470000  0.37660000  1.0
  C  C60  1  0.29390000  0.64280000  0.38660000  1.0
  C  C61  1  0.55280000  0.15920000  0.53760000  1.0
  C  C62  1  0.69680000  0.27100000  0.57760000  1.0
  C  C63  1  0.76490000  0.18020000  0.56100000  1.0
  C  C64  1  0.80260000  0.12870000  0.71840000  1.0
  C  C65  1  0.86380000  0.04270000  0.69740000  1.0
  C  C66  1  0.85480000  0.05470000  0.37660000  1.0
  C  C67  1  0.79390000  0.14280000  0.38660000  1.0
  N  N68  1  0.89740000  0.75550000  0.52370000  1.0
  N  N69  1  0.60740000  0.50740000  0.47200000  1.0
  N  N70  1  0.39740000  0.25550000  0.52370000  1.0
  N  N71  1  0.10740000  0.00740000  0.47200000  1.0
  N  N72  1  0.10260000  0.75550000  0.47630000  1.0
  N  N73  1  0.39260000  0.50740000  0.52800000  1.0
  N  N74  1  0.60260000  0.25550000  0.47630000  1.0
  N  N75  1  0.89260000  0.00740000  0.52800000  1.0
  O  O76  1  0.97750000  0.88330000  0.18980000  1.0
  O  O77  1  0.47750000  0.38330000  0.18980000  1.0
  O  O78  1  0.02250000  0.88330000  0.81020000  1.0
  O  O79  1  0.52250000  0.38330000  0.81020000  1.0
