# generated using pymatgen
data_TbCoH7C12(NO2)4
_symmetry_space_group_name_H-M   'P 1'
_cell_length_a   9.14430000
_cell_length_b   13.00000000
_cell_length_c   18.40860000
_cell_angle_alpha   72.43510000
_cell_angle_beta   75.61900000
_cell_angle_gamma   69.40850000
_symmetry_Int_Tables_number   1
_chemical_formula_structural   TbCoH7C12(NO2)4
_chemical_formula_sum   'Tb4 Co4 H28 C48 N16 O32'
_cell_volume   1928.05771475
_cell_formula_units_Z   4
loop_
 _symmetry_equiv_pos_site_id
 _symmetry_equiv_pos_as_xyz
  1  'x, y, z'
loop_
 _atom_site_type_symbol
 _atom_site_label
 _atom_site_symmetry_multiplicity
 _atom_site_fract_x
 _atom_site_fract_y
 _atom_site_fract_z
 _atom_site_occupancy
  Tb  Tb0  1  0.15282000  0.09047000  0.99423000  1.0
  Tb  Tb1  1  0.76248000  0.59047000  0.49423000  1.0
  Tb  Tb2  1  0.84718000  0.90953000  0.00577000  1.0
  Tb  Tb3  1  0.23752000  0.40953000  0.50577000  1.0
  Co  Co4  1  0.22352000  0.41399000  0.16317000  1.0
  Co  Co5  1  0.19932000  0.91399000  0.66317000  1.0
  Co  Co6  1  0.77648000  0.58601000  0.83683000  1.0
  Co  Co7  1  0.80068000  0.08601000  0.33683000  1.0
  H  H8  1  0.72320000  0.19650000  0.53990000  1.0
  H  H9  1  0.13100000  0.70660000  0.62220000  1.0
  H  H10  1  0.86900000  0.29340000  0.37780000  1.0
  H  H11  1  0.24540000  0.04490000  0.34850000  1.0
  H  H12  1  0.63820000  0.40110000  0.08610000  1.0
  H  H13  1  0.71850000  0.99730000  0.56670000  1.0
  H  H14  1  0.36120000  0.54490000  0.84850000  1.0
  H  H15  1  0.45960000  0.30350000  0.96010000  1.0
  H  H16  1  0.87460000  0.90110000  0.58610000  1.0
  H  H17  1  0.43960000  0.90970000  0.81710000  1.0
  H  H18  1  0.71750000  0.49730000  0.06670000  1.0
  H  H19  1  0.99810000  0.35650000  0.34550000  1.0
  H  H20  1  0.16640000  0.59030000  0.68290000  1.0
  H  H21  1  0.27680000  0.80350000  0.46010000  1.0
  H  H22  1  0.56040000  0.09030000  0.18290000  1.0
  H  H23  1  0.28250000  0.50270000  0.93330000  1.0
  H  H24  1  0.29990000  0.85650000  0.84550000  1.0
  H  H25  1  0.63880000  0.45510000  0.15150000  1.0
  H  H26  1  0.83360000  0.40970000  0.31710000  1.0
  H  H27  1  0.70010000  0.14350000  0.15450000  1.0
  H  H28  1  0.12540000  0.09890000  0.41390000  1.0
  H  H29  1  0.45980000  0.79340000  0.87780000  1.0
  H  H30  1  0.54040000  0.69650000  0.03990000  1.0
  H  H31  1  0.54020000  0.20660000  0.12220000  1.0
  H  H32  1  0.36180000  0.59890000  0.91390000  1.0
  H  H33  1  0.75460000  0.95510000  0.65150000  1.0
  H  H34  1  0.28150000  0.00270000  0.43330000  1.0
  H  H35  1  0.00190000  0.64350000  0.65450000  1.0
  C  C36  1  0.19950000  0.03040000  0.40200000  1.0
  C  C37  1  0.88320000  0.05540000  0.58180000  1.0
  C  C38  1  0.80050000  0.96960000  0.59800000  1.0
  C  C39  1  0.11680000  0.94460000  0.41820000  1.0
  C  C40  1  0.49500000  0.73300000  0.66420000  1.0
  C  C41  1  0.61900000  0.65780000  0.70300000  1.0
  C  C42  1  0.08620000  0.65970000  0.66690000  1.0
  C  C43  1  0.97980000  0.84220000  0.79700000  1.0
  C  C44  1  0.00200000  0.93890000  0.81210000  1.0
  C  C45  1  0.25290000  0.84600000  0.02040000  1.0
  C  C46  1  0.11930000  0.65400000  0.47960000  1.0
  C  C47  1  0.38100000  0.34220000  0.29700000  1.0
  C  C48  1  0.02020000  0.15780000  0.20300000  1.0
  C  C49  1  0.41280000  0.84030000  0.83310000  1.0
  C  C50  1  0.10780000  0.23300000  0.16420000  1.0
  C  C51  1  0.76750000  0.35990000  0.92910000  1.0
  C  C52  1  0.94350000  0.85990000  0.42910000  1.0
  C  C53  1  0.50500000  0.26700000  0.33580000  1.0
  C  C54  1  0.21470000  0.13910000  0.57770000  1.0
  C  C55  1  0.36810000  0.53040000  0.90200000  1.0
  C  C56  1  0.74710000  0.15400000  0.97960000  1.0
  C  C57  1  0.52040000  0.44460000  0.91820000  1.0
  C  C58  1  0.47340000  0.78040000  0.76940000  1.0
  C  C59  1  0.55860000  0.25990000  0.40710000  1.0
  C  C60  1  0.91380000  0.34030000  0.33310000  1.0
  C  C61  1  0.92670000  0.22200000  0.54300000  1.0
  C  C62  1  0.52660000  0.21960000  0.23060000  1.0
  C  C63  1  0.93150000  0.36090000  0.92230000  1.0
  C  C64  1  0.24700000  0.43890000  0.31210000  1.0
  C  C65  1  0.07330000  0.77800000  0.45700000  1.0
  C  C66  1  0.30830000  0.72200000  0.04300000  1.0
  C  C67  1  0.97680000  0.28040000  0.26940000  1.0
  C  C68  1  0.78530000  0.86090000  0.42230000  1.0
  C  C69  1  0.75300000  0.56110000  0.68790000  1.0
  C  C70  1  0.63190000  0.46960000  0.09800000  1.0
  C  C71  1  0.77440000  0.75990000  0.90710000  1.0
  C  C72  1  0.05650000  0.14010000  0.57090000  1.0
  C  C73  1  0.99800000  0.06110000  0.18790000  1.0
  C  C74  1  0.06850000  0.63910000  0.07770000  1.0
  C  C75  1  0.89220000  0.76700000  0.83580000  1.0
  C  C76  1  0.44140000  0.74010000  0.59290000  1.0
  C  C77  1  0.47960000  0.55540000  0.08180000  1.0
  C  C78  1  0.22560000  0.24010000  0.09290000  1.0
  C  C79  1  0.02320000  0.71960000  0.73060000  1.0
  C  C80  1  0.69170000  0.27800000  0.95700000  1.0
  C  C81  1  0.88070000  0.34600000  0.52040000  1.0
  C  C82  1  0.23250000  0.64010000  0.07090000  1.0
  C  C83  1  0.58720000  0.15970000  0.16690000  1.0
  N  N84  1  0.34030000  0.53660000  0.09620000  1.0
  N  N85  1  0.02690000  0.03660000  0.59620000  1.0
  N  N86  1  0.60180000  0.68960000  0.77020000  1.0
  N  N87  1  0.40500000  0.80950000  0.70710000  1.0
  N  N88  1  0.18090000  0.83470000  0.44810000  1.0
  N  N89  1  0.59500000  0.19050000  0.29290000  1.0
  N  N90  1  0.81910000  0.16530000  0.55190000  1.0
  N  N91  1  0.07840000  0.30950000  0.20710000  1.0
  N  N92  1  0.65970000  0.46340000  0.90380000  1.0
  N  N93  1  0.97310000  0.96340000  0.40380000  1.0
  N  N94  1  0.53630000  0.33470000  0.94810000  1.0
  N  N95  1  0.92160000  0.69050000  0.79290000  1.0
  N  N96  1  0.06160000  0.81040000  0.72980000  1.0
  N  N97  1  0.46370000  0.66530000  0.05190000  1.0
  N  N98  1  0.93840000  0.18960000  0.27020000  1.0
  N  N99  1  0.39820000  0.31040000  0.22980000  1.0
  O  O100  1  0.34710000  0.89980000  0.01800000  1.0
  O  O101  1  0.08044000  0.99482000  0.75870000  1.0
  O  O102  1  0.26690000  0.16710000  0.05370000  1.0
  O  O103  1  0.70230000  0.95080000  0.38420000  1.0
  O  O104  1  0.26490000  0.60020000  0.48200000  1.0
  O  O105  1  0.73510000  0.39980000  0.51800000  1.0
  O  O106  1  0.16604000  0.49482000  0.25870000  1.0
  O  O107  1  0.32150000  0.82140000  0.57480000  1.0
  O  O108  1  0.73310000  0.83290000  0.94630000  1.0
  O  O109  1  0.29770000  0.04920000  0.61580000  1.0
  O  O110  1  0.96960000  0.72440000  0.04520000  1.0
  O  O111  1  0.03730000  0.54920000  0.11580000  1.0
  O  O112  1  0.97919000  0.40012000  0.50470000  1.0
  O  O113  1  0.26080000  0.22440000  0.54520000  1.0
  O  O114  1  0.73920000  0.77560000  0.45480000  1.0
  O  O115  1  0.94480000  0.96570000  0.87750000  1.0
  O  O116  1  0.21200000  0.46570000  0.37750000  1.0
  O  O117  1  0.11599000  0.90012000  0.00470000  1.0
  O  O118  1  0.02081000  0.59988000  0.49530000  1.0
  O  O119  1  0.88401000  0.09988000  0.99530000  1.0
  O  O120  1  0.51230000  0.66710000  0.55370000  1.0
  O  O121  1  0.96270000  0.45080000  0.88420000  1.0
  O  O122  1  0.78800000  0.53430000  0.62250000  1.0
  O  O123  1  0.65290000  0.10020000  0.98200000  1.0
  O  O124  1  0.71770000  0.67860000  0.92520000  1.0
  O  O125  1  0.91956000  0.00518000  0.24130000  1.0
  O  O126  1  0.05520000  0.03430000  0.12250000  1.0
  O  O127  1  0.48770000  0.33290000  0.44630000  1.0
  O  O128  1  0.28230000  0.32140000  0.07480000  1.0
  O  O129  1  0.67850000  0.17860000  0.42520000  1.0
  O  O130  1  0.03040000  0.27560000  0.95480000  1.0
  O  O131  1  0.83396000  0.50518000  0.74130000  1.0
