# generated using pymatgen
data_LaH4C5O8
_symmetry_space_group_name_H-M   'P 1'
_cell_length_a   6.10920000
_cell_length_b   7.68660000
_cell_length_c   22.69870000
_cell_angle_alpha   90.00000000
_cell_angle_beta   91.65700000
_cell_angle_gamma   90.00000000
_symmetry_Int_Tables_number   1
_chemical_formula_structural   LaH4C5O8
_chemical_formula_sum   'La4 H16 C20 O32'
_cell_volume   1065.46200798
_cell_formula_units_Z   4
loop_
 _symmetry_equiv_pos_site_id
 _symmetry_equiv_pos_as_xyz
  1  'x, y, z'
loop_
 _atom_site_type_symbol
 _atom_site_label
 _atom_site_symmetry_multiplicity
 _atom_site_fract_x
 _atom_site_fract_y
 _atom_site_fract_z
 _atom_site_occupancy
  La  La0  1  0.45487000  0.50172000  0.85390000  1.0
  La  La1  1  0.54513000  0.00172000  0.64610000  1.0
  La  La2  1  0.54513000  0.49828000  0.14610000  1.0
  La  La3  1  0.45487000  0.99828000  0.35390000  1.0
  H  H4  1  0.30200000  0.72400000  0.75810000  1.0
  H  H5  1  0.44400000  0.62500000  0.61660000  1.0
  H  H6  1  0.04160000  0.47800000  0.71760000  1.0
  H  H7  1  0.12020000  0.56560000  0.62510000  1.0
  H  H8  1  0.69800000  0.22400000  0.74190000  1.0
  H  H9  1  0.55600000  0.12500000  0.88340000  1.0
  H  H10  1  0.95840000  0.97800000  0.78240000  1.0
  H  H11  1  0.87980000  0.06560000  0.87490000  1.0
  H  H12  1  0.69800000  0.27600000  0.24190000  1.0
  H  H13  1  0.55600000  0.37500000  0.38340000  1.0
  H  H14  1  0.95840000  0.52200000  0.28240000  1.0
  H  H15  1  0.87980000  0.43440000  0.37490000  1.0
  H  H16  1  0.30200000  0.77600000  0.25810000  1.0
  H  H17  1  0.44400000  0.87500000  0.11660000  1.0
  H  H18  1  0.04160000  0.02200000  0.21760000  1.0
  H  H19  1  0.12020000  0.93440000  0.12510000  1.0
  C  C20  1  0.36140000  0.39410000  0.71127000  1.0
  C  C21  1  0.18400000  0.53540000  0.71445000  1.0
  C  C22  1  0.18260000  0.63910000  0.65667000  1.0
  C  C23  1  0.04660000  0.80580000  0.65986000  1.0
  C  C24  1  0.58240000  0.57600000  0.99870000  1.0
  C  C25  1  0.63860000  0.89410000  0.78873000  1.0
  C  C26  1  0.81600000  0.03540000  0.78555000  1.0
  C  C27  1  0.81740000  0.13910000  0.84333000  1.0
  C  C28  1  0.95340000  0.30580000  0.84014000  1.0
  C  C29  1  0.41760000  0.07600000  0.50130000  1.0
  C  C30  1  0.63860000  0.60590000  0.28873000  1.0
  C  C31  1  0.81600000  0.46460000  0.28555000  1.0
  C  C32  1  0.81740000  0.36090000  0.34333000  1.0
  C  C33  1  0.95340000  0.19420000  0.34014000  1.0
  C  C34  1  0.41760000  0.42400000  0.00130000  1.0
  C  C35  1  0.36140000  0.10590000  0.21127000  1.0
  C  C36  1  0.18400000  0.96460000  0.21445000  1.0
  C  C37  1  0.18260000  0.86090000  0.15667000  1.0
  C  C38  1  0.04660000  0.69420000  0.15986000  1.0
  C  C39  1  0.58240000  0.92400000  0.49870000  1.0
  O  O40  1  0.51110000  0.39790000  0.75078000  1.0
  O  O41  1  0.35060000  0.28690000  0.67020000  1.0
  O  O42  1  0.22020000  0.64020000  0.76536000  1.0
  O  O43  1  0.39980000  0.68590000  0.64175000  1.0
  O  O44  1  0.14550000  0.94730000  0.65467000  1.0
  O  O45  1  0.84620000  0.78930000  0.66666667  1.0
  O  O46  1  0.62350000  0.63190000  0.94824000  1.0
  O  O47  1  0.66150000  0.63060000  0.04630000  1.0
  O  O48  1  0.48890000  0.89790000  0.74922000  1.0
  O  O49  1  0.64940000  0.78690000  0.82980000  1.0
  O  O50  1  0.77980000  0.14020000  0.73464000  1.0
  O  O51  1  0.60020000  0.18590000  0.85825000  1.0
  O  O52  1  0.85450000  0.44730000  0.84533000  1.0
  O  O53  1  0.15380000  0.28930000  0.83333000  1.0
  O  O54  1  0.37650000  0.13190000  0.55176000  1.0
  O  O55  1  0.33850000  0.13060000  0.45370000  1.0
  O  O56  1  0.48890000  0.60210000  0.24922000  1.0
  O  O57  1  0.64940000  0.71310000  0.32980000  1.0
  O  O58  1  0.77980000  0.35980000  0.23464000  1.0
  O  O59  1  0.60020000  0.31410000  0.35825000  1.0
  O  O60  1  0.85450000  0.05270000  0.34533000  1.0
  O  O61  1  0.15380000  0.21070000  0.33333333  1.0
  O  O62  1  0.37650000  0.36810000  0.05176000  1.0
  O  O63  1  0.33850000  0.36940000  0.95370000  1.0
  O  O64  1  0.51110000  0.10210000  0.25078000  1.0
  O  O65  1  0.35060000  0.21310000  0.17020000  1.0
  O  O66  1  0.22020000  0.85980000  0.26536000  1.0
  O  O67  1  0.39980000  0.81410000  0.14175000  1.0
  O  O68  1  0.14550000  0.55270000  0.15467000  1.0
  O  O69  1  0.84620000  0.71070000  0.16667000  1.0
  O  O70  1  0.62350000  0.86810000  0.44824000  1.0
  O  O71  1  0.66150000  0.86940000  0.54630000  1.0
