# generated using pymatgen
data_MnH2(CO2)2
_symmetry_space_group_name_H-M   'P 1'
_cell_length_a   10.00500000
_cell_length_b   11.51900000
_cell_length_c   14.96100000
_cell_angle_alpha   91.22850000
_cell_angle_beta   90.00000000
_cell_angle_gamma   90.00000000
_symmetry_Int_Tables_number   1
_chemical_formula_structural   MnH2(CO2)2
_chemical_formula_sum   'Mn12 H24 C24 O48'
_cell_volume   1723.82294430
_cell_formula_units_Z   12
loop_
 _symmetry_equiv_pos_site_id
 _symmetry_equiv_pos_as_xyz
  1  'x, y, z'
loop_
 _atom_site_type_symbol
 _atom_site_label
 _atom_site_symmetry_multiplicity
 _atom_site_fract_x
 _atom_site_fract_y
 _atom_site_fract_z
 _atom_site_occupancy
  Mn  Mn0  1  0.91411000  0.75624000  0.13161000  1.0
  Mn  Mn1  1  0.09713000  0.73582000  0.31485000  1.0
  Mn  Mn2  1  0.41411000  0.74376000  0.36839000  1.0
  Mn  Mn3  1  0.59713000  0.76418000  0.18515000  1.0
  Mn  Mn4  1  0.08589000  0.24376000  0.86839000  1.0
  Mn  Mn5  1  0.90287000  0.26418000  0.68515000  1.0
  Mn  Mn6  1  0.58589000  0.25624000  0.63161000  1.0
  Mn  Mn7  1  0.40287000  0.23582000  0.81485000  1.0
  Mn  Mn8  1  0.00000000  0.50000000  0.00000000  1.0
  Mn  Mn9  1  0.50000000  0.00000000  0.50000000  1.0
  Mn  Mn10  1  0.00000000  0.00000000  0.00000000  1.0
  Mn  Mn11  1  0.50000000  0.50000000  0.50000000  1.0
  H  H12  1  0.74600000  0.86800000  0.36400000  1.0
  H  H13  1  0.02600000  0.47150000  0.26450000  1.0
  H  H14  1  0.61100000  0.55170000  0.04570000  1.0
  H  H15  1  0.19500000  0.97300000  0.23100000  1.0
  H  H16  1  0.16300000  0.69700000  0.93500000  1.0
  H  H17  1  0.70100000  0.99050000  0.00450000  1.0
  H  H18  1  0.24600000  0.63200000  0.13600000  1.0
  H  H19  1  0.52600000  0.02850000  0.23550000  1.0
  H  H20  1  0.11100000  0.94830000  0.45430000  1.0
  H  H21  1  0.69500000  0.52700000  0.26900000  1.0
  H  H22  1  0.66300000  0.80300000  0.56500000  1.0
  H  H23  1  0.20100000  0.50950000  0.49550000  1.0
  H  H24  1  0.25400000  0.13200000  0.63600000  1.0
  H  H25  1  0.97400000  0.52850000  0.73550000  1.0
  H  H26  1  0.38900000  0.44830000  0.95430000  1.0
  H  H27  1  0.80500000  0.02700000  0.76900000  1.0
  H  H28  1  0.83700000  0.30300000  0.06500000  1.0
  H  H29  1  0.29900000  0.00950000  0.99550000  1.0
  H  H30  1  0.75400000  0.36800000  0.86400000  1.0
  H  H31  1  0.47400000  0.97150000  0.76450000  1.0
  H  H32  1  0.88900000  0.05170000  0.54570000  1.0
  H  H33  1  0.30500000  0.47300000  0.73100000  1.0
  H  H34  1  0.33700000  0.19700000  0.43500000  1.0
  H  H35  1  0.79900000  0.49050000  0.50450000  1.0
  C  C36  1  0.81690000  0.83620000  0.32820000  1.0
  C  C37  1  0.00790000  0.51286000  0.21116000  1.0
  C  C38  1  0.70550000  0.57332000  0.05232000  1.0
  C  C39  1  0.12840000  0.94929000  0.18659000  1.0
  C  C40  1  0.10810000  0.74222000  0.97112000  1.0
  C  C41  1  0.71440000  0.93212000  0.04842000  1.0
  C  C42  1  0.31690000  0.66380000  0.17180000  1.0
  C  C43  1  0.50790000  0.98714000  0.28884000  1.0
  C  C44  1  0.20550000  0.92668000  0.44768000  1.0
  C  C45  1  0.62840000  0.55071000  0.31341000  1.0
  C  C46  1  0.60810000  0.75778000  0.52888000  1.0
  C  C47  1  0.21440000  0.56788000  0.45158000  1.0
  C  C48  1  0.18310000  0.16380000  0.67180000  1.0
  C  C49  1  0.99210000  0.48714000  0.78884000  1.0
  C  C50  1  0.29450000  0.42668000  0.94768000  1.0
  C  C51  1  0.87160000  0.05071000  0.81341000  1.0
  C  C52  1  0.89190000  0.25778000  0.02888000  1.0
  C  C53  1  0.28560000  0.06788000  0.95158000  1.0
  C  C54  1  0.68310000  0.33620000  0.82820000  1.0
  C  C55  1  0.49210000  0.01286000  0.71116000  1.0
  C  C56  1  0.79450000  0.07332000  0.55232000  1.0
  C  C57  1  0.37160000  0.44929000  0.68659000  1.0
  C  C58  1  0.39190000  0.24222000  0.47112000  1.0
  C  C59  1  0.78560000  0.43212000  0.54842000  1.0
  O  O60  1  0.79148000  0.81348000  0.24635000  1.0
  O  O61  1  0.92286000  0.81581000  0.36771000  1.0
  O  O62  1  0.99500000  0.62283000  0.21985000  1.0
  O  O63  1  0.00206000  0.45674000  0.14044000  1.0
  O  O64  1  0.73392000  0.65254000  0.10953000  1.0
  O  O65  1  0.78527000  0.51754000  0.00554000  1.0
  O  O66  1  0.07764000  0.84888000  0.19695000  1.0
  O  O67  1  0.10551000  0.01572000  0.12572000  1.0
  O  O68  1  0.03015000  0.68649000  0.02251000  1.0
  O  O69  1  0.11568000  0.84818000  0.96548000  1.0
  O  O70  1  0.83505000  0.89960000  0.05777000  1.0
  O  O71  1  0.61635000  0.89664000  0.09015000  1.0
  O  O72  1  0.29148000  0.68652000  0.25365000  1.0
  O  O73  1  0.42286000  0.68419000  0.13229000  1.0
  O  O74  1  0.49500000  0.87717000  0.28015000  1.0
  O  O75  1  0.50206000  0.04326000  0.35956000  1.0
  O  O76  1  0.23392000  0.84746000  0.39047000  1.0
  O  O77  1  0.28527000  0.98246000  0.49446000  1.0
  O  O78  1  0.57764000  0.65112000  0.30305000  1.0
  O  O79  1  0.60551000  0.48428000  0.37428000  1.0
  O  O80  1  0.53015000  0.81351000  0.47749000  1.0
  O  O81  1  0.61568000  0.65182000  0.53452000  1.0
  O  O82  1  0.33505000  0.60040000  0.44223000  1.0
  O  O83  1  0.11635000  0.60336000  0.40985000  1.0
  O  O84  1  0.20852000  0.18652000  0.75365000  1.0
  O  O85  1  0.07714000  0.18419000  0.63229000  1.0
  O  O86  1  0.00500000  0.37717000  0.78015000  1.0
  O  O87  1  0.99794000  0.54326000  0.85956000  1.0
  O  O88  1  0.26608000  0.34746000  0.89047000  1.0
  O  O89  1  0.21473000  0.48246000  0.99446000  1.0
  O  O90  1  0.92236000  0.15112000  0.80305000  1.0
  O  O91  1  0.89449000  0.98428000  0.87428000  1.0
  O  O92  1  0.96985000  0.31351000  0.97749000  1.0
  O  O93  1  0.88432000  0.15182000  0.03452000  1.0
  O  O94  1  0.16495000  0.10040000  0.94223000  1.0
  O  O95  1  0.38365000  0.10336000  0.90985000  1.0
  O  O96  1  0.70852000  0.31348000  0.74635000  1.0
  O  O97  1  0.57714000  0.31581000  0.86771000  1.0
  O  O98  1  0.50500000  0.12283000  0.71985000  1.0
  O  O99  1  0.49794000  0.95674000  0.64044000  1.0
  O  O100  1  0.76608000  0.15254000  0.60953000  1.0
  O  O101  1  0.71473000  0.01754000  0.50554000  1.0
  O  O102  1  0.42236000  0.34888000  0.69695000  1.0
  O  O103  1  0.39449000  0.51572000  0.62572000  1.0
  O  O104  1  0.46985000  0.18649000  0.52251000  1.0
  O  O105  1  0.38432000  0.34818000  0.46548000  1.0
  O  O106  1  0.66495000  0.39960000  0.55777000  1.0
  O  O107  1  0.88365000  0.39664000  0.59015000  1.0
