# generated using pymatgen
data_AlH4C8O4F
_symmetry_space_group_name_H-M   'P 1'
_cell_length_a   20.67210000
_cell_length_b   14.75150000
_cell_length_c   13.12810000
_cell_angle_alpha   90.00200000
_cell_angle_beta   67.13580000
_cell_angle_gamma   90.00040000
_symmetry_Int_Tables_number   1
_chemical_formula_structural   AlH4C8O4F
_chemical_formula_sum   'Al16 H64 C128 O64 F16'
_cell_volume   3688.79255135
_cell_formula_units_Z   16
loop_
 _symmetry_equiv_pos_site_id
 _symmetry_equiv_pos_as_xyz
  1  'x, y, z'
loop_
 _atom_site_type_symbol
 _atom_site_label
 _atom_site_symmetry_multiplicity
 _atom_site_fract_x
 _atom_site_fract_y
 _atom_site_fract_z
 _atom_site_occupancy
  Al  Al0  1  0.50001000  0.00118000  0.25003000  1.0
  Al  Al1  1  0.99996000  0.24878000  0.24997000  1.0
  Al  Al2  1  0.49997000  0.00118000  0.99998000  1.0
  Al  Al3  1  0.00002000  0.24876000  0.00004000  1.0
  Al  Al4  1  0.49997000  0.49945000  0.24997000  1.0
  Al  Al5  1  0.00001000  0.75144000  0.24999000  1.0
  Al  Al6  1  0.50002000  0.49944000  0.00004000  1.0
  Al  Al7  1  0.99999000  0.75146000  0.99999000  1.0
  Al  Al8  1  0.50004000  0.00110000  0.75004000  1.0
  Al  Al9  1  0.99998000  0.24873000  0.75000000  1.0
  Al  Al10  1  0.49997000  0.00111000  0.49998000  1.0
  Al  Al11  1  0.00002000  0.24875000  0.50004000  1.0
  Al  Al12  1  0.50000000  0.49937000  0.74996000  1.0
  Al  Al13  1  0.00003000  0.75141000  0.75001000  1.0
  Al  Al14  1  0.50003000  0.49937000  0.50002000  1.0
  Al  Al15  1  0.99998000  0.75140000  0.49998000  1.0
  H  H16  1  0.16578000  0.39801000  0.19427000  1.0
  H  H17  1  0.29473000  0.42257000  0.14225000  1.0
  H  H18  1  0.66592000  0.14926000  0.19418000  1.0
  H  H19  1  0.79502000  0.17258000  0.14215000  1.0
  H  H20  1  0.83426000  0.39830000  0.05574000  1.0
  H  H21  1  0.70532000  0.42282000  0.10773000  1.0
  H  H22  1  0.33411000  0.14936000  0.05579000  1.0
  H  H23  1  0.20501000  0.17267000  0.10778000  1.0
  H  H24  1  0.83410000  0.10070000  0.30580000  1.0
  H  H25  1  0.70500000  0.07735000  0.35782000  1.0
  H  H26  1  0.33412000  0.35065000  0.30586000  1.0
  H  H27  1  0.20518000  0.32610000  0.35785000  1.0
  H  H28  1  0.16589000  0.10066000  0.44407000  1.0
  H  H29  1  0.29500000  0.07735000  0.39209000  1.0
  H  H30  1  0.66584000  0.35039000  0.44403000  1.0
  H  H31  1  0.79478000  0.32590000  0.39207000  1.0
  H  H32  1  0.16589000  0.90001000  0.19421000  1.0
  H  H33  1  0.29491000  0.92397000  0.14220000  1.0
  H  H34  1  0.66579000  0.64899000  0.19428000  1.0
  H  H35  1  0.79466000  0.67400000  0.14225000  1.0
  H  H36  1  0.83411000  0.90006000  0.05576000  1.0
  H  H37  1  0.70510000  0.92401000  0.10773000  1.0
  H  H38  1  0.33424000  0.64895000  0.05566000  1.0
  H  H39  1  0.20537000  0.67394000  0.10764000  1.0
  H  H40  1  0.83423000  0.60190000  0.30574000  1.0
  H  H41  1  0.70536000  0.57687000  0.35774000  1.0
  H  H42  1  0.33418000  0.85214000  0.30576000  1.0
  H  H43  1  0.20516000  0.82813000  0.35777000  1.0
  H  H44  1  0.16581000  0.60209000  0.44415000  1.0
  H  H45  1  0.29469000  0.57709000  0.39216000  1.0
  H  H46  1  0.66580000  0.85210000  0.44413000  1.0
  H  H47  1  0.79482000  0.82812000  0.39214000  1.0
  H  H48  1  0.16574000  0.39814000  0.69427000  1.0
  H  H49  1  0.29468000  0.42270000  0.64227000  1.0
  H  H50  1  0.66589000  0.14927000  0.69415000  1.0
  H  H51  1  0.79500000  0.17260000  0.64214000  1.0
  H  H52  1  0.83421000  0.39782000  0.55580000  1.0
  H  H53  1  0.70526000  0.42240000  0.60781000  1.0
  H  H54  1  0.33408000  0.14919000  0.55594000  1.0
  H  H55  1  0.20498000  0.17253000  0.60796000  1.0
  H  H56  1  0.83410000  0.10071000  0.80583000  1.0
  H  H57  1  0.70499000  0.07740000  0.85784000  1.0
  H  H58  1  0.33413000  0.35060000  0.80583000  1.0
  H  H59  1  0.20520000  0.32606000  0.85784000  1.0
  H  H60  1  0.16590000  0.10076000  0.94431000  1.0
  H  H61  1  0.29500000  0.07743000  0.89230000  1.0
  H  H62  1  0.66586000  0.35074000  0.94431000  1.0
  H  H63  1  0.79480000  0.32619000  0.89233000  1.0
  H  H64  1  0.16589000  0.90001000  0.69417000  1.0
  H  H65  1  0.29490000  0.92398000  0.64218000  1.0
  H  H66  1  0.66581000  0.64880000  0.69423000  1.0
  H  H67  1  0.79468000  0.67381000  0.64224000  1.0
  H  H68  1  0.83408000  0.89990000  0.55592000  1.0
  H  H69  1  0.70506000  0.92390000  0.60794000  1.0
  H  H70  1  0.33424000  0.64901000  0.55580000  1.0
  H  H71  1  0.20537000  0.67404000  0.60782000  1.0
  H  H72  1  0.83420000  0.60200000  0.80579000  1.0
  H  H73  1  0.70532000  0.57698000  0.85781000  1.0
  H  H74  1  0.33416000  0.85222000  0.80577000  1.0
  H  H75  1  0.20514000  0.82823000  0.85780000  1.0
  H  H76  1  0.16581000  0.60189000  0.94424000  1.0
  H  H77  1  0.29468000  0.57686000  0.89223000  1.0
  H  H78  1  0.66581000  0.85215000  0.94436000  1.0
  H  H79  1  0.79483000  0.82813000  0.89233000  1.0
  C  C80  1  0.17797000  0.36153000  0.02883000  1.0
  C  C81  1  0.20307000  0.38818000  0.10949000  1.0
  C  C82  1  0.10220000  0.33873000  0.06193000  1.0
  C  C83  1  0.27466000  0.40084000  0.08082000  1.0
  C  C84  1  0.67800000  0.11294000  0.02875000  1.0
  C  C85  1  0.70318000  0.13919000  0.10944000  1.0
  C  C86  1  0.60216000  0.09081000  0.06186000  1.0
  C  C87  1  0.77483000  0.15112000  0.08079000  1.0
  C  C88  1  0.82204000  0.36159000  0.22113000  1.0
  C  C89  1  0.79696000  0.38835000  0.14049000  1.0
  C  C90  1  0.89780000  0.33877000  0.18805000  1.0
  C  C91  1  0.72536000  0.40100000  0.16914000  1.0
  C  C92  1  0.32200000  0.11295000  0.22120000  1.0
  C  C93  1  0.29684000  0.13925000  0.14051000  1.0
  C  C94  1  0.39784000  0.09085000  0.18812000  1.0
  C  C95  1  0.22519000  0.15118000  0.16914000  1.0
  C  C96  1  0.82200000  0.13701000  0.47124000  1.0
  C  C97  1  0.79682000  0.11078000  0.39054000  1.0
  C  C98  1  0.89784000  0.15912000  0.43814000  1.0
  C  C99  1  0.72518000  0.09882000  0.41918000  1.0
  C  C100  1  0.32192000  0.38715000  0.47129000  1.0
  C  C101  1  0.29682000  0.36053000  0.39061000  1.0
  C  C102  1  0.39772000  0.40970000  0.43815000  1.0
  C  C103  1  0.22523000  0.34788000  0.41927000  1.0
  C  C104  1  0.17800000  0.13704000  0.27866000  1.0
  C  C105  1  0.20317000  0.11077000  0.35935000  1.0
  C  C106  1  0.10216000  0.15913000  0.31180000  1.0
  C  C107  1  0.27481000  0.09884000  0.33073000  1.0
  C  C108  1  0.67806000  0.38709000  0.27865000  1.0
  C  C109  1  0.70315000  0.36038000  0.35931000  1.0
  C  C110  1  0.60225000  0.40966000  0.31180000  1.0
  C  C111  1  0.77474000  0.34775000  0.33067000  1.0
  C  C112  1  0.17802000  0.86365000  0.02877000  1.0
  C  C113  1  0.20317000  0.89006000  0.10945000  1.0
  C  C114  1  0.10221000  0.84124000  0.06188000  1.0
  C  C115  1  0.27479000  0.90238000  0.08080000  1.0
  C  C116  1  0.67800000  0.61244000  0.02883000  1.0
  C  C117  1  0.70308000  0.63922000  0.10949000  1.0
  C  C118  1  0.60224000  0.58947000  0.06195000  1.0
  C  C119  1  0.77466000  0.65215000  0.08081000  1.0
  C  C120  1  0.82196000  0.86362000  0.22119000  1.0
  C  C121  1  0.79682000  0.89006000  0.14050000  1.0
  C  C122  1  0.89778000  0.84122000  0.18810000  1.0
  C  C123  1  0.72521000  0.90239000  0.16914000  1.0
  C  C124  1  0.32202000  0.61247000  0.22112000  1.0
  C  C125  1  0.29694000  0.63921000  0.14045000  1.0
  C  C126  1  0.39777000  0.58951000  0.18803000  1.0
  C  C127  1  0.22537000  0.65211000  0.16910000  1.0
  C  C128  1  0.82200000  0.63842000  0.47119000  1.0
  C  C129  1  0.79693000  0.61166000  0.39052000  1.0
  C  C130  1  0.89776000  0.66140000  0.43807000  1.0
  C  C131  1  0.72536000  0.59873000  0.41919000  1.0
  C  C132  1  0.32204000  0.88855000  0.47120000  1.0
  C  C133  1  0.29690000  0.86207000  0.39053000  1.0
  C  C134  1  0.39782000  0.91120000  0.43808000  1.0
  C  C135  1  0.22528000  0.84972000  0.41918000  1.0
  C  C136  1  0.17804000  0.63856000  0.27869000  1.0
  C  C137  1  0.20312000  0.61182000  0.35936000  1.0
  C  C138  1  0.10227000  0.66147000  0.31182000  1.0
  C  C139  1  0.27469000  0.59892000  0.33070000  1.0
  C  C140  1  0.67795000  0.88854000  0.27870000  1.0
  C  C141  1  0.70309000  0.86205000  0.35937000  1.0
  C  C142  1  0.60217000  0.91120000  0.31185000  1.0
  C  C143  1  0.77471000  0.84970000  0.33073000  1.0
  C  C144  1  0.17794000  0.36158000  0.52884000  1.0
  C  C145  1  0.20303000  0.38828000  0.60950000  1.0
  C  C146  1  0.10218000  0.33875000  0.56195000  1.0
  C  C147  1  0.27463000  0.40094000  0.58084000  1.0
  C  C148  1  0.67800000  0.11291000  0.52872000  1.0
  C  C149  1  0.70317000  0.13917000  0.60942000  1.0
  C  C150  1  0.60217000  0.09075000  0.56184000  1.0
  C  C151  1  0.77481000  0.15113000  0.58077000  1.0
  C  C152  1  0.82202000  0.36150000  0.72128000  1.0
  C  C153  1  0.79692000  0.38807000  0.64059000  1.0
  C  C154  1  0.89778000  0.33868000  0.68816000  1.0
  C  C155  1  0.72533000  0.40074000  0.66925000  1.0
  C  C156  1  0.32200000  0.11290000  0.72137000  1.0
  C  C157  1  0.29681000  0.13915000  0.64068000  1.0
  C  C158  1  0.39783000  0.09076000  0.68822000  1.0
  C  C159  1  0.22517000  0.15109000  0.66933000  1.0
  C  C160  1  0.82201000  0.13702000  0.97126000  1.0
  C  C161  1  0.79683000  0.11079000  0.89056000  1.0
  C  C162  1  0.89784000  0.15911000  0.93816000  1.0
  C  C163  1  0.72518000  0.09886000  0.91921000  1.0
  C  C164  1  0.32195000  0.38708000  0.97126000  1.0
  C  C165  1  0.29684000  0.36047000  0.89059000  1.0
  C  C166  1  0.39775000  0.40967000  0.93814000  1.0
  C  C167  1  0.22525000  0.34783000  0.91926000  1.0
  C  C168  1  0.17799000  0.13702000  0.77887000  1.0
  C  C169  1  0.20317000  0.11081000  0.85957000  1.0
  C  C170  1  0.10215000  0.15910000  0.81193000  1.0
  C  C171  1  0.27482000  0.09888000  0.83093000  1.0
  C  C172  1  0.67805000  0.38706000  0.77883000  1.0
  C  C173  1  0.70315000  0.36055000  0.85954000  1.0
  C  C174  1  0.60225000  0.40965000  0.81193000  1.0
  C  C175  1  0.77475000  0.34789000  0.83088000  1.0
  C  C176  1  0.17803000  0.86360000  0.52874000  1.0
  C  C177  1  0.20317000  0.89004000  0.60942000  1.0
  C  C178  1  0.10221000  0.84120000  0.56186000  1.0
  C  C179  1  0.27479000  0.90237000  0.58077000  1.0
  C  C180  1  0.67803000  0.61229000  0.52878000  1.0
  C  C181  1  0.70311000  0.63905000  0.60944000  1.0
  C  C182  1  0.60227000  0.58936000  0.56189000  1.0
  C  C183  1  0.77468000  0.65198000  0.58078000  1.0
  C  C184  1  0.82195000  0.86355000  0.72135000  1.0
  C  C185  1  0.79679000  0.88995000  0.64067000  1.0
  C  C186  1  0.89777000  0.84114000  0.68820000  1.0
  C  C187  1  0.72518000  0.90230000  0.66934000  1.0
  C  C188  1  0.32201000  0.61238000  0.72122000  1.0
  C  C189  1  0.29694000  0.63922000  0.64058000  1.0
  C  C190  1  0.39778000  0.58942000  0.68809000  1.0
  C  C191  1  0.22537000  0.65215000  0.66925000  1.0
  C  C192  1  0.82198000  0.63855000  0.97123000  1.0
  C  C193  1  0.79690000  0.61177000  0.89058000  1.0
  C  C194  1  0.89775000  0.66148000  0.93811000  1.0
  C  C195  1  0.72533000  0.59884000  0.91926000  1.0
  C  C196  1  0.32203000  0.88858000  0.97122000  1.0
  C  C197  1  0.29689000  0.86213000  0.89054000  1.0
  C  C198  1  0.39781000  0.91122000  0.93811000  1.0
  C  C199  1  0.22526000  0.84979000  0.91921000  1.0
  C  C200  1  0.17804000  0.63852000  0.77882000  1.0
  C  C201  1  0.20311000  0.61170000  0.85946000  1.0
  C  C202  1  0.10228000  0.66147000  0.81193000  1.0
  C  C203  1  0.27468000  0.59877000  0.83079000  1.0
  C  C204  1  0.67794000  0.88851000  0.77891000  1.0
  C  C205  1  0.70309000  0.86206000  0.85959000  1.0
  C  C206  1  0.60216000  0.91117000  0.81201000  1.0
  C  C207  1  0.77471000  0.84969000  0.83092000  1.0
  O  O208  1  0.08127000  0.31732000  0.98569000  1.0
  O  O209  1  0.06378000  0.33806000  0.16508000  1.0
  O  O210  1  0.58117000  0.06965000  0.98563000  1.0
  O  O211  1  0.56374000  0.09038000  0.16501000  1.0
  O  O212  1  0.91873000  0.31736000  0.26430000  1.0
  O  O213  1  0.93623000  0.33808000  0.08491000  1.0
  O  O214  1  0.41882000  0.06967000  0.26436000  1.0
  O  O215  1  0.43627000  0.09041000  0.08498000  1.0
  O  O216  1  0.91885000  0.18021000  0.51437000  1.0
  O  O217  1  0.93625000  0.15957000  0.33499000  1.0
  O  O218  1  0.41876000  0.43088000  0.51434000  1.0
  O  O219  1  0.43610000  0.41034000  0.33498000  1.0
  O  O220  1  0.08115000  0.18026000  0.23558000  1.0
  O  O221  1  0.06375000  0.15957000  0.41495000  1.0
  O  O222  1  0.58123000  0.43091000  0.23563000  1.0
  O  O223  1  0.56386000  0.41023000  0.41497000  1.0
  O  O224  1  0.08121000  0.82005000  0.98566000  1.0
  O  O225  1  0.06380000  0.84067000  0.16504000  1.0
  O  O226  1  0.58127000  0.56810000  0.98575000  1.0
  O  O227  1  0.56385000  0.58868000  0.16511000  1.0
  O  O228  1  0.91877000  0.82001000  0.26432000  1.0
  O  O229  1  0.93620000  0.84068000  0.08495000  1.0
  O  O230  1  0.41874000  0.56815000  0.26424000  1.0
  O  O231  1  0.43617000  0.58870000  0.08487000  1.0
  O  O232  1  0.91873000  0.68277000  0.51428000  1.0
  O  O233  1  0.93615000  0.66217000  0.33490000  1.0
  O  O234  1  0.41878000  0.93251000  0.51432000  1.0
  O  O235  1  0.43623000  0.91188000  0.33493000  1.0
  O  O236  1  0.08130000  0.68285000  0.23562000  1.0
  O  O237  1  0.06388000  0.66220000  0.41499000  1.0
  O  O238  1  0.58121000  0.93257000  0.23563000  1.0
  O  O239  1  0.56376000  0.91183000  0.41500000  1.0
  O  O240  1  0.08125000  0.31733000  0.48571000  1.0
  O  O241  1  0.06377000  0.33804000  0.66510000  1.0
  O  O242  1  0.58116000  0.06960000  0.48562000  1.0
  O  O243  1  0.56376000  0.09030000  0.66499000  1.0
  O  O244  1  0.91874000  0.31730000  0.76438000  1.0
  O  O245  1  0.93619000  0.33799000  0.58500000  1.0
  O  O246  1  0.41884000  0.06960000  0.76443000  1.0
  O  O247  1  0.43622000  0.09028000  0.58507000  1.0
  O  O248  1  0.91883000  0.18027000  0.01441000  1.0
  O  O249  1  0.93628000  0.15951000  0.83502000  1.0
  O  O250  1  0.41876000  0.43092000  0.01432000  1.0
  O  O251  1  0.43614000  0.41026000  0.83497000  1.0
  O  O252  1  0.08117000  0.18024000  0.73568000  1.0
  O  O253  1  0.06371000  0.15952000  0.91507000  1.0
  O  O254  1  0.58124000  0.43084000  0.73572000  1.0
  O  O255  1  0.56386000  0.41029000  0.91509000  1.0
  O  O256  1  0.08121000  0.81999000  0.48565000  1.0
  O  O257  1  0.06382000  0.84063000  0.66502000  1.0
  O  O258  1  0.58129000  0.56800000  0.48570000  1.0
  O  O259  1  0.56388000  0.58857000  0.66505000  1.0
  O  O260  1  0.91879000  0.81997000  0.76439000  1.0
  O  O261  1  0.93615000  0.84056000  0.58503000  1.0
  O  O262  1  0.41876000  0.56804000  0.76428000  1.0
  O  O263  1  0.43616000  0.58862000  0.58493000  1.0
  O  O264  1  0.91871000  0.68287000  0.01432000  1.0
  O  O265  1  0.93616000  0.66218000  0.83495000  1.0
  O  O266  1  0.41876000  0.93260000  0.01434000  1.0
  O  O267  1  0.43624000  0.91184000  0.83496000  1.0
  O  O268  1  0.08131000  0.68285000  0.73571000  1.0
  O  O269  1  0.06387000  0.66221000  0.91509000  1.0
  O  O270  1  0.58122000  0.93250000  0.73575000  1.0
  O  O271  1  0.56374000  0.91184000  0.91515000  1.0
  F  F272  1  0.99999000  0.30364000  0.37502000  1.0
  F  F273  1  0.49999000  0.05619000  0.37502000  1.0
  F  F274  1  0.99999000  0.19375000  0.12501000  1.0
  F  F275  1  0.49998000  0.44427000  0.12501000  1.0
  F  F276  1  0.99999000  0.80637000  0.37501000  1.0
  F  F277  1  0.49999000  0.55437000  0.37502000  1.0
  F  F278  1  0.00000000  0.69656000  0.12499000  1.0
  F  F279  1  0.49997000  0.94630000  0.12501000  1.0
  F  F280  1  0.00001000  0.30363000  0.87501000  1.0
  F  F281  1  0.50001000  0.05619000  0.87499000  1.0
  F  F282  1  0.00001000  0.19373000  0.62501000  1.0
  F  F283  1  0.50001000  0.44420000  0.62499000  1.0
  F  F284  1  0.00001000  0.80639000  0.87499000  1.0
  F  F285  1  0.50002000  0.55438000  0.87498000  1.0
  F  F286  1  0.00002000  0.69652000  0.62499000  1.0
  F  F287  1  0.50002000  0.94622000  0.62500000  1.0
