# generated using pymatgen
data_Cd3H4(C5O4)4
_symmetry_space_group_name_H-M   'P 1'
_cell_length_a   20.74500000
_cell_length_b   8.32550000
_cell_length_c   17.34350000
_cell_angle_alpha   90.00000000
_cell_angle_beta   90.00000000
_cell_angle_gamma   90.00000000
_symmetry_Int_Tables_number   1
_chemical_formula_structural   Cd3H4(C5O4)4
_chemical_formula_sum   'Cd12 H16 C80 O64'
_cell_volume   2995.43920039
_cell_formula_units_Z   4
loop_
 _symmetry_equiv_pos_site_id
 _symmetry_equiv_pos_as_xyz
  1  'x, y, z'
loop_
 _atom_site_type_symbol
 _atom_site_label
 _atom_site_symmetry_multiplicity
 _atom_site_fract_x
 _atom_site_fract_y
 _atom_site_fract_z
 _atom_site_occupancy
  Cd  Cd0  1  0.50000000  0.00000000  0.25000000  1.0
  Cd  Cd1  1  0.00000000  0.50000000  0.75000000  1.0
  Cd  Cd2  1  0.50000000  0.00000000  0.75000000  1.0
  Cd  Cd3  1  0.00000000  0.50000000  0.25000000  1.0
  Cd  Cd4  1  0.20249000  0.50000000  0.25000000  1.0
  Cd  Cd5  1  0.79751000  0.50000000  0.25000000  1.0
  Cd  Cd6  1  0.29751000  0.00000000  0.75000000  1.0
  Cd  Cd7  1  0.70249000  0.00000000  0.75000000  1.0
  Cd  Cd8  1  0.79751000  0.50000000  0.75000000  1.0
  Cd  Cd9  1  0.20249000  0.50000000  0.75000000  1.0
  Cd  Cd10  1  0.70249000  0.00000000  0.25000000  1.0
  Cd  Cd11  1  0.29751000  0.00000000  0.25000000  1.0
  H  H12  1  0.43990000  0.05300000  0.50000000  1.0
  H  H13  1  0.26280000  0.38810000  0.50000000  1.0
  H  H14  1  0.93990000  0.55300000  0.00000000  1.0
  H  H15  1  0.76280000  0.88810000  0.00000000  1.0
  H  H16  1  0.56010000  0.94700000  0.50000000  1.0
  H  H17  1  0.73720000  0.61190000  0.50000000  1.0
  H  H18  1  0.06010000  0.44700000  0.00000000  1.0
  H  H19  1  0.23720000  0.11190000  0.00000000  1.0
  H  H20  1  0.06010000  0.55300000  0.50000000  1.0
  H  H21  1  0.23720000  0.88810000  0.50000000  1.0
  H  H22  1  0.56010000  0.05300000  0.00000000  1.0
  H  H23  1  0.73720000  0.38810000  0.00000000  1.0
  H  H24  1  0.93990000  0.44700000  0.50000000  1.0
  H  H25  1  0.76280000  0.11190000  0.50000000  1.0
  H  H26  1  0.43990000  0.94700000  0.00000000  1.0
  H  H27  1  0.26280000  0.61190000  0.00000000  1.0
  C  C28  1  0.41090000  0.10130000  0.35990000  1.0
  C  C29  1  0.37649000  0.16380000  0.42980000  1.0
  C  C30  1  0.32246000  0.26520000  0.42960000  1.0
  C  C31  1  0.29444000  0.32320000  0.35460000  1.0
  C  C32  1  0.91090000  0.60130000  0.85990000  1.0
  C  C33  1  0.87649000  0.66380000  0.92980000  1.0
  C  C34  1  0.82246000  0.76520000  0.92960000  1.0
  C  C35  1  0.79444000  0.82320000  0.85460000  1.0
  C  C36  1  0.58910000  0.89870000  0.35990000  1.0
  C  C37  1  0.62351000  0.83620000  0.42980000  1.0
  C  C38  1  0.67754000  0.73480000  0.42960000  1.0
  C  C39  1  0.70556000  0.67680000  0.35460000  1.0
  C  C40  1  0.08910000  0.39870000  0.85990000  1.0
  C  C41  1  0.12351000  0.33620000  0.92980000  1.0
  C  C42  1  0.17754000  0.23480000  0.92960000  1.0
  C  C43  1  0.20556000  0.17680000  0.85460000  1.0
  C  C44  1  0.08910000  0.60130000  0.64010000  1.0
  C  C45  1  0.12351000  0.66380000  0.57020000  1.0
  C  C46  1  0.17754000  0.76520000  0.57040000  1.0
  C  C47  1  0.20556000  0.82320000  0.64540000  1.0
  C  C48  1  0.58910000  0.10130000  0.14010000  1.0
  C  C49  1  0.62351000  0.16380000  0.07020000  1.0
  C  C50  1  0.67754000  0.26520000  0.07040000  1.0
  C  C51  1  0.70556000  0.32320000  0.14540000  1.0
  C  C52  1  0.91090000  0.39870000  0.64010000  1.0
  C  C53  1  0.87649000  0.33620000  0.57020000  1.0
  C  C54  1  0.82246000  0.23480000  0.57040000  1.0
  C  C55  1  0.79444000  0.17680000  0.64540000  1.0
  C  C56  1  0.41090000  0.89870000  0.14010000  1.0
  C  C57  1  0.37649000  0.83620000  0.07020000  1.0
  C  C58  1  0.32246000  0.73480000  0.07040000  1.0
  C  C59  1  0.29444000  0.67680000  0.14540000  1.0
  C  C60  1  0.58910000  0.89870000  0.64010000  1.0
  C  C61  1  0.62351000  0.83620000  0.57020000  1.0
  C  C62  1  0.67754000  0.73480000  0.57040000  1.0
  C  C63  1  0.70556000  0.67680000  0.64540000  1.0
  C  C64  1  0.08910000  0.39870000  0.14010000  1.0
  C  C65  1  0.12351000  0.33620000  0.07020000  1.0
  C  C66  1  0.17754000  0.23480000  0.07040000  1.0
  C  C67  1  0.20556000  0.17680000  0.14540000  1.0
  C  C68  1  0.41090000  0.10130000  0.64010000  1.0
  C  C69  1  0.37649000  0.16380000  0.57020000  1.0
  C  C70  1  0.32246000  0.26520000  0.57040000  1.0
  C  C71  1  0.29444000  0.32320000  0.64540000  1.0
  C  C72  1  0.91090000  0.60130000  0.14010000  1.0
  C  C73  1  0.87649000  0.66380000  0.07020000  1.0
  C  C74  1  0.82246000  0.76520000  0.07040000  1.0
  C  C75  1  0.79444000  0.82320000  0.14540000  1.0
  C  C76  1  0.91090000  0.39870000  0.35990000  1.0
  C  C77  1  0.87649000  0.33620000  0.42980000  1.0
  C  C78  1  0.82246000  0.23480000  0.42960000  1.0
  C  C79  1  0.79444000  0.17680000  0.35460000  1.0
  C  C80  1  0.41090000  0.89870000  0.85990000  1.0
  C  C81  1  0.37649000  0.83620000  0.92980000  1.0
  C  C82  1  0.32246000  0.73480000  0.92960000  1.0
  C  C83  1  0.29444000  0.67680000  0.85460000  1.0
  C  C84  1  0.08910000  0.60130000  0.35990000  1.0
  C  C85  1  0.12351000  0.66380000  0.42980000  1.0
  C  C86  1  0.17754000  0.76520000  0.42960000  1.0
  C  C87  1  0.20556000  0.82320000  0.35460000  1.0
  C  C88  1  0.58910000  0.10130000  0.85990000  1.0
  C  C89  1  0.62351000  0.16380000  0.92980000  1.0
  C  C90  1  0.67754000  0.26520000  0.92960000  1.0
  C  C91  1  0.70556000  0.32320000  0.85460000  1.0
  C  C92  1  0.40320000  0.11710000  0.50000000  1.0
  C  C93  1  0.29740000  0.31690000  0.50000000  1.0
  C  C94  1  0.90320000  0.61710000  0.00000000  1.0
  C  C95  1  0.79740000  0.81690000  0.00000000  1.0
  C  C96  1  0.59680000  0.88290000  0.50000000  1.0
  C  C97  1  0.70260000  0.68310000  0.50000000  1.0
  C  C98  1  0.09680000  0.38290000  0.00000000  1.0
  C  C99  1  0.20260000  0.18310000  0.00000000  1.0
  C  C100  1  0.09680000  0.61710000  0.50000000  1.0
  C  C101  1  0.20260000  0.81690000  0.50000000  1.0
  C  C102  1  0.59680000  0.11710000  0.00000000  1.0
  C  C103  1  0.70260000  0.31690000  0.00000000  1.0
  C  C104  1  0.90320000  0.38290000  0.50000000  1.0
  C  C105  1  0.79740000  0.18310000  0.50000000  1.0
  C  C106  1  0.40320000  0.88290000  0.00000000  1.0
  C  C107  1  0.29740000  0.68310000  0.00000000  1.0
  O  O108  1  0.46004000  0.17570000  0.33823000  1.0
  O  O109  1  0.39283000  0.96920000  0.33070000  1.0
  O  O110  1  0.31363000  0.26160000  0.29301000  1.0
  O  O111  1  0.25446000  0.43530000  0.35786000  1.0
  O  O112  1  0.96004000  0.67570000  0.83823000  1.0
  O  O113  1  0.89283000  0.46920000  0.83070000  1.0
  O  O114  1  0.81363000  0.76160000  0.79301000  1.0
  O  O115  1  0.75446000  0.93530000  0.85786000  1.0
  O  O116  1  0.53996000  0.82430000  0.33823000  1.0
  O  O117  1  0.60717000  0.03080000  0.33070000  1.0
  O  O118  1  0.68637000  0.73840000  0.29301000  1.0
  O  O119  1  0.74554000  0.56470000  0.35786000  1.0
  O  O120  1  0.03996000  0.32430000  0.83823000  1.0
  O  O121  1  0.10717000  0.53080000  0.83070000  1.0
  O  O122  1  0.18637000  0.23840000  0.79301000  1.0
  O  O123  1  0.24554000  0.06470000  0.85786000  1.0
  O  O124  1  0.03996000  0.67570000  0.66177000  1.0
  O  O125  1  0.10717000  0.46920000  0.66930000  1.0
  O  O126  1  0.18637000  0.76160000  0.70699000  1.0
  O  O127  1  0.24554000  0.93530000  0.64214000  1.0
  O  O128  1  0.53996000  0.17570000  0.16177000  1.0
  O  O129  1  0.60717000  0.96920000  0.16930000  1.0
  O  O130  1  0.68637000  0.26160000  0.20699000  1.0
  O  O131  1  0.74554000  0.43530000  0.14214000  1.0
  O  O132  1  0.96004000  0.32430000  0.66177000  1.0
  O  O133  1  0.89283000  0.53080000  0.66930000  1.0
  O  O134  1  0.81363000  0.23840000  0.70699000  1.0
  O  O135  1  0.75446000  0.06470000  0.64214000  1.0
  O  O136  1  0.46004000  0.82430000  0.16177000  1.0
  O  O137  1  0.39283000  0.03080000  0.16930000  1.0
  O  O138  1  0.31363000  0.73840000  0.20699000  1.0
  O  O139  1  0.25446000  0.56470000  0.14214000  1.0
  O  O140  1  0.53996000  0.82430000  0.66177000  1.0
  O  O141  1  0.60717000  0.03080000  0.66930000  1.0
  O  O142  1  0.68637000  0.73840000  0.70699000  1.0
  O  O143  1  0.74554000  0.56470000  0.64214000  1.0
  O  O144  1  0.03996000  0.32430000  0.16177000  1.0
  O  O145  1  0.10717000  0.53080000  0.16930000  1.0
  O  O146  1  0.18637000  0.23840000  0.20699000  1.0
  O  O147  1  0.24554000  0.06470000  0.14214000  1.0
  O  O148  1  0.46004000  0.17570000  0.66177000  1.0
  O  O149  1  0.39283000  0.96920000  0.66930000  1.0
  O  O150  1  0.31363000  0.26160000  0.70699000  1.0
  O  O151  1  0.25446000  0.43530000  0.64214000  1.0
  O  O152  1  0.96004000  0.67570000  0.16177000  1.0
  O  O153  1  0.89283000  0.46920000  0.16930000  1.0
  O  O154  1  0.81363000  0.76160000  0.20699000  1.0
  O  O155  1  0.75446000  0.93530000  0.14214000  1.0
  O  O156  1  0.96004000  0.32430000  0.33823000  1.0
  O  O157  1  0.89283000  0.53080000  0.33070000  1.0
  O  O158  1  0.81363000  0.23840000  0.29301000  1.0
  O  O159  1  0.75446000  0.06470000  0.35786000  1.0
  O  O160  1  0.46004000  0.82430000  0.83823000  1.0
  O  O161  1  0.39283000  0.03080000  0.83070000  1.0
  O  O162  1  0.31363000  0.73840000  0.79301000  1.0
  O  O163  1  0.25446000  0.56470000  0.85786000  1.0
  O  O164  1  0.03996000  0.67570000  0.33823000  1.0
  O  O165  1  0.10717000  0.46920000  0.33070000  1.0
  O  O166  1  0.18637000  0.76160000  0.29301000  1.0
  O  O167  1  0.24554000  0.93530000  0.35786000  1.0
  O  O168  1  0.53996000  0.17570000  0.83823000  1.0
  O  O169  1  0.60717000  0.96920000  0.83070000  1.0
  O  O170  1  0.68637000  0.26160000  0.79301000  1.0
  O  O171  1  0.74554000  0.43530000  0.85786000  1.0
