# generated using pymatgen
data_ZnCoH13C24N2O9
_symmetry_space_group_name_H-M   'P 1'
_cell_length_a   13.86370000
_cell_length_b   18.94110000
_cell_length_c   19.00790000
_cell_angle_alpha   90.00000000
_cell_angle_beta   90.00000000
_cell_angle_gamma   90.00000000
_symmetry_Int_Tables_number   1
_chemical_formula_structural   ZnCoH13C24N2O9
_chemical_formula_sum   'Zn8 Co8 H104 C192 N16 O72'
_cell_volume   4991.35532378
_cell_formula_units_Z   8
loop_
 _symmetry_equiv_pos_site_id
 _symmetry_equiv_pos_as_xyz
  1  'x, y, z'
loop_
 _atom_site_type_symbol
 _atom_site_label
 _atom_site_symmetry_multiplicity
 _atom_site_fract_x
 _atom_site_fract_y
 _atom_site_fract_z
 _atom_site_occupancy
  Zn  Zn0  1  0.36485000  0.89688000  0.56850000  1.0
  Zn  Zn1  1  0.63516000  0.39688000  0.93150000  1.0
  Zn  Zn2  1  0.63516000  0.10312000  0.43150000  1.0
  Zn  Zn3  1  0.36485000  0.60312000  0.06850000  1.0
  Zn  Zn4  1  0.13516000  0.10312000  0.06850000  1.0
  Zn  Zn5  1  0.86485000  0.60312000  0.43150000  1.0
  Zn  Zn6  1  0.86485000  0.89688000  0.93150000  1.0
  Zn  Zn7  1  0.13516000  0.39688000  0.56850000  1.0
  Co  Co8  1  0.40355000  0.48311000  0.95656000  1.0
  Co  Co9  1  0.59645000  0.98311000  0.54344000  1.0
  Co  Co10  1  0.59645000  0.51689000  0.04344000  1.0
  Co  Co11  1  0.40355000  0.01689000  0.45656000  1.0
  Co  Co12  1  0.09645000  0.51689000  0.45656000  1.0
  Co  Co13  1  0.90355000  0.01689000  0.04344000  1.0
  Co  Co14  1  0.90355000  0.48311000  0.54344000  1.0
  Co  Co15  1  0.09645000  0.98311000  0.95656000  1.0
  H  H16  1  0.41310000  0.71820000  0.70140000  1.0
  H  H17  1  0.42020000  0.63500000  0.78950000  1.0
  H  H18  1  0.37770000  0.78590000  0.93290000  1.0
  H  H19  1  0.37490000  0.86920000  0.84420000  1.0
  H  H20  1  0.11210000  0.06670000  0.44180000  1.0
  H  H21  1  0.04890000  0.91080000  0.57380000  1.0
  H  H22  1  0.38350000  0.36660000  0.07910000  1.0
  H  H23  1  0.35700000  0.24760000  0.09020000  1.0
  H  H24  1  0.34870000  0.17800000  0.99090000  1.0
  H  H25  1  0.34670000  0.34990000  0.68260000  1.0
  H  H26  1  0.35480000  0.47080000  0.68860000  1.0
  H  H27  1  0.37610000  0.52410000  0.79660000  1.0
  H  H28  1  0.43620000  0.00240000  0.58560000  1.0
  H  H29  1  0.58690000  0.21820000  0.79860000  1.0
  H  H30  1  0.57980000  0.13500000  0.71050000  1.0
  H  H31  1  0.62230000  0.28590000  0.56710000  1.0
  H  H32  1  0.62510000  0.36920000  0.65580000  1.0
  H  H33  1  0.88790000  0.56670000  0.05820000  1.0
  H  H34  1  0.95110000  0.41080000  0.92620000  1.0
  H  H35  1  0.61650000  0.86660000  0.42090000  1.0
  H  H36  1  0.64300000  0.74760000  0.40980000  1.0
  H  H37  1  0.65130000  0.67800000  0.50910000  1.0
  H  H38  1  0.65330000  0.84990000  0.81740000  1.0
  H  H39  1  0.64520000  0.97080000  0.81140000  1.0
  H  H40  1  0.62390000  0.02410000  0.70340000  1.0
  H  H41  1  0.56380000  0.50240000  0.91440000  1.0
  H  H42  1  0.58690000  0.28180000  0.29860000  1.0
  H  H43  1  0.57980000  0.36500000  0.21050000  1.0
  H  H44  1  0.62230000  0.21410000  0.06710000  1.0
  H  H45  1  0.62510000  0.13080000  0.15580000  1.0
  H  H46  1  0.88790000  0.93330000  0.55820000  1.0
  H  H47  1  0.95110000  0.08920000  0.42620000  1.0
  H  H48  1  0.61650000  0.63340000  0.92090000  1.0
  H  H49  1  0.64300000  0.75240000  0.90980000  1.0
  H  H50  1  0.65130000  0.82200000  0.00910000  1.0
  H  H51  1  0.65330000  0.65010000  0.31740000  1.0
  H  H52  1  0.64520000  0.52920000  0.31140000  1.0
  H  H53  1  0.62390000  0.47590000  0.20340000  1.0
  H  H54  1  0.56380000  0.99760000  0.41440000  1.0
  H  H55  1  0.41310000  0.78180000  0.20140000  1.0
  H  H56  1  0.42020000  0.86500000  0.28950000  1.0
  H  H57  1  0.37770000  0.71410000  0.43290000  1.0
  H  H58  1  0.37490000  0.63080000  0.34420000  1.0
  H  H59  1  0.11210000  0.43330000  0.94180000  1.0
  H  H60  1  0.04890000  0.58920000  0.07380000  1.0
  H  H61  1  0.38350000  0.13340000  0.57910000  1.0
  H  H62  1  0.35700000  0.25240000  0.59020000  1.0
  H  H63  1  0.34870000  0.32200000  0.49090000  1.0
  H  H64  1  0.34670000  0.15010000  0.18260000  1.0
  H  H65  1  0.35480000  0.02920000  0.18860000  1.0
  H  H66  1  0.37610000  0.97590000  0.29660000  1.0
  H  H67  1  0.43620000  0.49760000  0.08560000  1.0
  H  H68  1  0.08690000  0.28180000  0.20140000  1.0
  H  H69  1  0.07980000  0.36500000  0.28950000  1.0
  H  H70  1  0.12230000  0.21410000  0.43290000  1.0
  H  H71  1  0.12510000  0.13080000  0.34420000  1.0
  H  H72  1  0.38790000  0.93330000  0.94180000  1.0
  H  H73  1  0.45110000  0.08920000  0.07380000  1.0
  H  H74  1  0.11650000  0.63340000  0.57910000  1.0
  H  H75  1  0.14300000  0.75240000  0.59020000  1.0
  H  H76  1  0.15130000  0.82200000  0.49090000  1.0
  H  H77  1  0.15330000  0.65010000  0.18260000  1.0
  H  H78  1  0.14520000  0.52920000  0.18860000  1.0
  H  H79  1  0.12390000  0.47590000  0.29660000  1.0
  H  H80  1  0.06380000  0.99760000  0.08560000  1.0
  H  H81  1  0.91310000  0.78180000  0.29860000  1.0
  H  H82  1  0.92020000  0.86500000  0.21050000  1.0
  H  H83  1  0.87770000  0.71410000  0.06710000  1.0
  H  H84  1  0.87490000  0.63080000  0.15580000  1.0
  H  H85  1  0.61210000  0.43330000  0.55820000  1.0
  H  H86  1  0.54890000  0.58920000  0.42620000  1.0
  H  H87  1  0.88350000  0.13340000  0.92090000  1.0
  H  H88  1  0.85700000  0.25240000  0.90980000  1.0
  H  H89  1  0.84870000  0.32200000  0.00910000  1.0
  H  H90  1  0.84670000  0.15010000  0.31740000  1.0
  H  H91  1  0.85480000  0.02920000  0.31140000  1.0
  H  H92  1  0.87610000  0.97590000  0.20340000  1.0
  H  H93  1  0.93620000  0.49760000  0.41440000  1.0
  H  H94  1  0.91310000  0.71820000  0.79860000  1.0
  H  H95  1  0.92020000  0.63500000  0.71050000  1.0
  H  H96  1  0.87770000  0.78590000  0.56710000  1.0
  H  H97  1  0.87490000  0.86920000  0.65580000  1.0
  H  H98  1  0.61210000  0.06670000  0.05820000  1.0
  H  H99  1  0.54890000  0.91080000  0.92620000  1.0
  H  H100  1  0.88350000  0.36660000  0.42090000  1.0
  H  H101  1  0.85700000  0.24760000  0.40980000  1.0
  H  H102  1  0.84870000  0.17800000  0.50910000  1.0
  H  H103  1  0.84670000  0.34990000  0.81740000  1.0
  H  H104  1  0.85480000  0.47080000  0.81140000  1.0
  H  H105  1  0.87610000  0.52410000  0.70340000  1.0
  H  H106  1  0.93620000  0.00240000  0.91440000  1.0
  H  H107  1  0.08690000  0.21820000  0.70140000  1.0
  H  H108  1  0.07980000  0.13500000  0.78950000  1.0
  H  H109  1  0.12230000  0.28590000  0.93290000  1.0
  H  H110  1  0.12510000  0.36920000  0.84420000  1.0
  H  H111  1  0.38790000  0.56670000  0.44180000  1.0
  H  H112  1  0.45110000  0.41080000  0.57380000  1.0
  H  H113  1  0.11650000  0.86660000  0.07910000  1.0
  H  H114  1  0.14300000  0.74760000  0.09020000  1.0
  H  H115  1  0.15130000  0.67800000  0.99090000  1.0
  H  H116  1  0.15330000  0.84990000  0.68260000  1.0
  H  H117  1  0.14520000  0.97080000  0.68860000  1.0
  H  H118  1  0.12390000  0.02410000  0.79660000  1.0
  H  H119  1  0.06380000  0.50240000  0.58560000  1.0
  C  C120  1  0.38653000  0.85637000  0.70651000  1.0
  C  C121  1  0.39237000  0.80174000  0.76367000  1.0
  C  C122  1  0.40610000  0.73210000  0.74803000  1.0
  C  C123  1  0.40950000  0.68213000  0.80080000  1.0
  C  C124  1  0.39716000  0.70143000  0.87028000  1.0
  C  C125  1  0.38470000  0.77186000  0.88625000  1.0
  C  C126  1  0.38280000  0.82178000  0.83307000  1.0
  C  C127  1  0.39561000  0.64619000  0.92726000  1.0
  C  C128  1  0.20347000  0.97237000  0.51675000  1.0
  C  C129  1  0.09798000  0.98630000  0.50909000  1.0
  C  C130  1  0.06690000  0.03934000  0.46555000  1.0
  C  C131  1  0.02968000  0.94699000  0.54376000  1.0
  C  C132  1  0.37810000  0.33925000  0.03870000  1.0
  C  C133  1  0.36310000  0.26767000  0.04580000  1.0
  C  C134  1  0.35720000  0.22655000  0.98690000  1.0
  C  C135  1  0.36400000  0.25758000  0.92127000  1.0
  C  C136  1  0.35640000  0.21607000  0.85600000  1.0
  C  C137  1  0.35460000  0.25502000  0.78530000  1.0
  C  C138  1  0.36215000  0.33292000  0.78681000  1.0
  C  C139  1  0.35490000  0.37230000  0.72574000  1.0
  C  C140  1  0.35980000  0.44350000  0.72913000  1.0
  C  C141  1  0.37250000  0.47514000  0.79445000  1.0
  C  C142  1  0.37405000  0.36825000  0.85036000  1.0
  C  C143  1  0.37620000  0.33096000  0.91823000  1.0
  C  C144  1  0.61347000  0.35637000  0.79349000  1.0
  C  C145  1  0.60763000  0.30174000  0.73633000  1.0
  C  C146  1  0.59390000  0.23210000  0.75197000  1.0
  C  C147  1  0.59050000  0.18213000  0.69920000  1.0
  C  C148  1  0.60284000  0.20143000  0.62972000  1.0
  C  C149  1  0.61530000  0.27186000  0.61375000  1.0
  C  C150  1  0.61720000  0.32178000  0.66693000  1.0
  C  C151  1  0.60439000  0.14619000  0.57274000  1.0
  C  C152  1  0.79653000  0.47237000  0.98325000  1.0
  C  C153  1  0.90202000  0.48630000  0.99091000  1.0
  C  C154  1  0.93310000  0.53934000  0.03445000  1.0
  C  C155  1  0.97032000  0.44699000  0.95624000  1.0
  C  C156  1  0.62190000  0.83925000  0.46130000  1.0
  C  C157  1  0.63690000  0.76767000  0.45420000  1.0
  C  C158  1  0.64280000  0.72655000  0.51310000  1.0
  C  C159  1  0.63600000  0.75758000  0.57873000  1.0
  C  C160  1  0.64360000  0.71607000  0.64400000  1.0
  C  C161  1  0.64540000  0.75502000  0.71470000  1.0
  C  C162  1  0.63785000  0.83292000  0.71319000  1.0
  C  C163  1  0.64510000  0.87230000  0.77426000  1.0
  C  C164  1  0.64020000  0.94350000  0.77087000  1.0
  C  C165  1  0.62750000  0.97514000  0.70555000  1.0
  C  C166  1  0.62595000  0.86825000  0.64964000  1.0
  C  C167  1  0.62380000  0.83096000  0.58177000  1.0
  C  C168  1  0.61347000  0.14363000  0.29349000  1.0
  C  C169  1  0.60763000  0.19826000  0.23633000  1.0
  C  C170  1  0.59390000  0.26790000  0.25197000  1.0
  C  C171  1  0.59050000  0.31787000  0.19920000  1.0
  C  C172  1  0.60284000  0.29857000  0.12972000  1.0
  C  C173  1  0.61530000  0.22814000  0.11375000  1.0
  C  C174  1  0.61720000  0.17822000  0.16693000  1.0
  C  C175  1  0.60439000  0.35381000  0.07274000  1.0
  C  C176  1  0.79653000  0.02763000  0.48325000  1.0
  C  C177  1  0.90202000  0.01370000  0.49091000  1.0
  C  C178  1  0.93310000  0.96066000  0.53445000  1.0
  C  C179  1  0.97032000  0.05301000  0.45624000  1.0
  C  C180  1  0.62190000  0.66075000  0.96130000  1.0
  C  C181  1  0.63690000  0.73233000  0.95420000  1.0
  C  C182  1  0.64280000  0.77345000  0.01310000  1.0
  C  C183  1  0.63600000  0.74242000  0.07873000  1.0
  C  C184  1  0.64360000  0.78393000  0.14400000  1.0
  C  C185  1  0.64540000  0.74498000  0.21470000  1.0
  C  C186  1  0.63785000  0.66708000  0.21319000  1.0
  C  C187  1  0.64510000  0.62770000  0.27426000  1.0
  C  C188  1  0.64020000  0.55650000  0.27087000  1.0
  C  C189  1  0.62750000  0.52486000  0.20555000  1.0
  C  C190  1  0.62595000  0.63175000  0.14964000  1.0
  C  C191  1  0.62380000  0.66904000  0.08177000  1.0
  C  C192  1  0.38653000  0.64363000  0.20651000  1.0
  C  C193  1  0.39237000  0.69826000  0.26367000  1.0
  C  C194  1  0.40610000  0.76790000  0.24803000  1.0
  C  C195  1  0.40950000  0.81787000  0.30080000  1.0
  C  C196  1  0.39716000  0.79857000  0.37028000  1.0
  C  C197  1  0.38470000  0.72814000  0.38625000  1.0
  C  C198  1  0.38280000  0.67822000  0.33307000  1.0
  C  C199  1  0.39561000  0.85381000  0.42726000  1.0
  C  C200  1  0.20347000  0.52763000  0.01675000  1.0
  C  C201  1  0.09798000  0.51370000  0.00909000  1.0
  C  C202  1  0.06690000  0.46066000  0.96555000  1.0
  C  C203  1  0.02968000  0.55301000  0.04376000  1.0
  C  C204  1  0.37810000  0.16075000  0.53870000  1.0
  C  C205  1  0.36310000  0.23233000  0.54580000  1.0
  C  C206  1  0.35720000  0.27345000  0.48690000  1.0
  C  C207  1  0.36400000  0.24242000  0.42127000  1.0
  C  C208  1  0.35640000  0.28393000  0.35600000  1.0
  C  C209  1  0.35460000  0.24498000  0.28530000  1.0
  C  C210  1  0.36215000  0.16708000  0.28681000  1.0
  C  C211  1  0.35490000  0.12770000  0.22574000  1.0
  C  C212  1  0.35980000  0.05650000  0.22913000  1.0
  C  C213  1  0.37250000  0.02486000  0.29445000  1.0
  C  C214  1  0.37405000  0.13175000  0.35036000  1.0
  C  C215  1  0.37620000  0.16904000  0.41823000  1.0
  C  C216  1  0.11347000  0.14363000  0.20651000  1.0
  C  C217  1  0.10763000  0.19826000  0.26367000  1.0
  C  C218  1  0.09390000  0.26790000  0.24803000  1.0
  C  C219  1  0.09050000  0.31787000  0.30080000  1.0
  C  C220  1  0.10284000  0.29857000  0.37028000  1.0
  C  C221  1  0.11530000  0.22814000  0.38625000  1.0
  C  C222  1  0.11720000  0.17822000  0.33307000  1.0
  C  C223  1  0.10439000  0.35381000  0.42726000  1.0
  C  C224  1  0.29653000  0.02763000  0.01675000  1.0
  C  C225  1  0.40202000  0.01370000  0.00909000  1.0
  C  C226  1  0.43310000  0.96066000  0.96555000  1.0
  C  C227  1  0.47032000  0.05301000  0.04376000  1.0
  C  C228  1  0.12190000  0.66075000  0.53870000  1.0
  C  C229  1  0.13690000  0.73233000  0.54580000  1.0
  C  C230  1  0.14280000  0.77345000  0.48690000  1.0
  C  C231  1  0.13600000  0.74242000  0.42127000  1.0
  C  C232  1  0.14360000  0.78393000  0.35600000  1.0
  C  C233  1  0.14540000  0.74498000  0.28530000  1.0
  C  C234  1  0.13785000  0.66708000  0.28681000  1.0
  C  C235  1  0.14510000  0.62770000  0.22574000  1.0
  C  C236  1  0.14020000  0.55650000  0.22913000  1.0
  C  C237  1  0.12750000  0.52486000  0.29445000  1.0
  C  C238  1  0.12595000  0.63175000  0.35036000  1.0
  C  C239  1  0.12380000  0.66904000  0.41823000  1.0
  C  C240  1  0.88653000  0.64363000  0.29349000  1.0
  C  C241  1  0.89237000  0.69826000  0.23633000  1.0
  C  C242  1  0.90610000  0.76790000  0.25197000  1.0
  C  C243  1  0.90950000  0.81787000  0.19920000  1.0
  C  C244  1  0.89716000  0.79857000  0.12972000  1.0
  C  C245  1  0.88470000  0.72814000  0.11375000  1.0
  C  C246  1  0.88280000  0.67822000  0.16693000  1.0
  C  C247  1  0.89561000  0.85381000  0.07274000  1.0
  C  C248  1  0.70347000  0.52763000  0.48325000  1.0
  C  C249  1  0.59798000  0.51370000  0.49091000  1.0
  C  C250  1  0.56690000  0.46066000  0.53445000  1.0
  C  C251  1  0.52968000  0.55301000  0.45624000  1.0
  C  C252  1  0.87810000  0.16075000  0.96130000  1.0
  C  C253  1  0.86310000  0.23233000  0.95420000  1.0
  C  C254  1  0.85720000  0.27345000  0.01310000  1.0
  C  C255  1  0.86400000  0.24242000  0.07873000  1.0
  C  C256  1  0.85640000  0.28393000  0.14400000  1.0
  C  C257  1  0.85460000  0.24498000  0.21470000  1.0
  C  C258  1  0.86215000  0.16708000  0.21319000  1.0
  C  C259  1  0.85490000  0.12770000  0.27426000  1.0
  C  C260  1  0.85980000  0.05650000  0.27087000  1.0
  C  C261  1  0.87250000  0.02486000  0.20555000  1.0
  C  C262  1  0.87405000  0.13175000  0.14964000  1.0
  C  C263  1  0.87620000  0.16904000  0.08177000  1.0
  C  C264  1  0.88653000  0.85637000  0.79349000  1.0
  C  C265  1  0.89237000  0.80174000  0.73633000  1.0
  C  C266  1  0.90610000  0.73210000  0.75197000  1.0
  C  C267  1  0.90950000  0.68213000  0.69920000  1.0
  C  C268  1  0.89716000  0.70143000  0.62972000  1.0
  C  C269  1  0.88470000  0.77186000  0.61375000  1.0
  C  C270  1  0.88280000  0.82178000  0.66693000  1.0
  C  C271  1  0.89561000  0.64619000  0.57274000  1.0
  C  C272  1  0.70347000  0.97237000  0.98325000  1.0
  C  C273  1  0.59798000  0.98630000  0.99091000  1.0
  C  C274  1  0.56690000  0.03934000  0.03445000  1.0
  C  C275  1  0.52968000  0.94699000  0.95624000  1.0
  C  C276  1  0.87810000  0.33925000  0.46130000  1.0
  C  C277  1  0.86310000  0.26767000  0.45420000  1.0
  C  C278  1  0.85720000  0.22655000  0.51310000  1.0
  C  C279  1  0.86400000  0.25758000  0.57873000  1.0
  C  C280  1  0.85640000  0.21607000  0.64400000  1.0
  C  C281  1  0.85460000  0.25502000  0.71470000  1.0
  C  C282  1  0.86215000  0.33292000  0.71319000  1.0
  C  C283  1  0.85490000  0.37230000  0.77426000  1.0
  C  C284  1  0.85980000  0.44350000  0.77087000  1.0
  C  C285  1  0.87250000  0.47514000  0.70555000  1.0
  C  C286  1  0.87405000  0.36825000  0.64964000  1.0
  C  C287  1  0.87620000  0.33096000  0.58177000  1.0
  C  C288  1  0.11347000  0.35637000  0.70651000  1.0
  C  C289  1  0.10763000  0.30174000  0.76367000  1.0
  C  C290  1  0.09390000  0.23210000  0.74803000  1.0
  C  C291  1  0.09050000  0.18213000  0.80080000  1.0
  C  C292  1  0.10284000  0.20143000  0.87028000  1.0
  C  C293  1  0.11530000  0.27186000  0.88625000  1.0
  C  C294  1  0.11720000  0.32178000  0.83307000  1.0
  C  C295  1  0.10439000  0.14619000  0.92726000  1.0
  C  C296  1  0.29653000  0.47237000  0.51675000  1.0
  C  C297  1  0.40202000  0.48630000  0.50909000  1.0
  C  C298  1  0.43310000  0.53934000  0.46555000  1.0
  C  C299  1  0.47032000  0.44699000  0.54376000  1.0
  C  C300  1  0.12190000  0.83925000  0.03870000  1.0
  C  C301  1  0.13690000  0.76767000  0.04580000  1.0
  C  C302  1  0.14280000  0.72655000  0.98690000  1.0
  C  C303  1  0.13600000  0.75758000  0.92127000  1.0
  C  C304  1  0.14360000  0.71607000  0.85600000  1.0
  C  C305  1  0.14540000  0.75502000  0.78530000  1.0
  C  C306  1  0.13785000  0.83292000  0.78681000  1.0
  C  C307  1  0.14510000  0.87230000  0.72574000  1.0
  C  C308  1  0.14020000  0.94350000  0.72913000  1.0
  C  C309  1  0.12750000  0.97514000  0.79445000  1.0
  C  C310  1  0.12595000  0.86825000  0.85036000  1.0
  C  C311  1  0.12380000  0.83096000  0.91823000  1.0
  N  N312  1  0.38539000  0.37097000  0.97605000  1.0
  N  N313  1  0.37978000  0.43882000  0.85398000  1.0
  N  N314  1  0.61461000  0.87097000  0.52395000  1.0
  N  N315  1  0.62022000  0.93882000  0.64602000  1.0
  N  N316  1  0.61461000  0.62903000  0.02395000  1.0
  N  N317  1  0.62022000  0.56118000  0.14602000  1.0
  N  N318  1  0.38539000  0.12903000  0.47605000  1.0
  N  N319  1  0.37978000  0.06118000  0.35398000  1.0
  N  N320  1  0.11461000  0.62903000  0.47605000  1.0
  N  N321  1  0.12022000  0.56118000  0.35398000  1.0
  N  N322  1  0.88539000  0.12903000  0.02395000  1.0
  N  N323  1  0.87978000  0.06118000  0.14602000  1.0
  N  N324  1  0.88539000  0.37097000  0.52395000  1.0
  N  N325  1  0.87978000  0.43882000  0.64602000  1.0
  N  N326  1  0.11461000  0.87097000  0.97605000  1.0
  N  N327  1  0.12022000  0.93882000  0.85398000  1.0
  O  O328  1  0.38730000  0.83215000  0.64420000  1.0
  O  O329  1  0.38091000  0.91885000  0.72132000  1.0
  O  O330  1  0.40877000  0.58352000  0.91003000  1.0
  O  O331  1  0.38126000  0.66794000  0.98908000  1.0
  O  O332  1  0.25929000  0.00745000  0.47929000  1.0
  O  O333  1  0.22851000  0.92591000  0.56115000  1.0
  O  O334  1  0.35160000  0.15199000  0.85640000  1.0
  O  O335  1  0.34660000  0.22156000  0.73167000  1.0
  O  O336  1  0.44545000  0.98064000  0.55666000  1.0
  O  O337  1  0.61270000  0.33215000  0.85580000  1.0
  O  O338  1  0.61909000  0.41885000  0.77868000  1.0
  O  O339  1  0.59123000  0.08352000  0.58997000  1.0
  O  O340  1  0.61874000  0.16794000  0.51092000  1.0
  O  O341  1  0.74071000  0.50745000  0.02071000  1.0
  O  O342  1  0.77149000  0.42591000  0.93885000  1.0
  O  O343  1  0.64840000  0.65199000  0.64360000  1.0
  O  O344  1  0.65340000  0.72156000  0.76833000  1.0
  O  O345  1  0.55455000  0.48064000  0.94334000  1.0
  O  O346  1  0.61270000  0.16785000  0.35580000  1.0
  O  O347  1  0.61909000  0.08115000  0.27868000  1.0
  O  O348  1  0.59123000  0.41648000  0.08997000  1.0
  O  O349  1  0.61874000  0.33206000  0.01092000  1.0
  O  O350  1  0.74071000  0.99255000  0.52071000  1.0
  O  O351  1  0.77149000  0.07409000  0.43885000  1.0
  O  O352  1  0.64840000  0.84801000  0.14360000  1.0
  O  O353  1  0.65340000  0.77844000  0.26833000  1.0
  O  O354  1  0.55455000  0.01936000  0.44334000  1.0
  O  O355  1  0.38730000  0.66785000  0.14420000  1.0
  O  O356  1  0.38091000  0.58115000  0.22132000  1.0
  O  O357  1  0.40877000  0.91648000  0.41003000  1.0
  O  O358  1  0.38126000  0.83206000  0.48908000  1.0
  O  O359  1  0.25929000  0.49255000  0.97929000  1.0
  O  O360  1  0.22851000  0.57409000  0.06115000  1.0
  O  O361  1  0.35160000  0.34801000  0.35640000  1.0
  O  O362  1  0.34660000  0.27844000  0.23167000  1.0
  O  O363  1  0.44545000  0.51936000  0.05666000  1.0
  O  O364  1  0.11270000  0.16785000  0.14420000  1.0
  O  O365  1  0.11909000  0.08115000  0.22132000  1.0
  O  O366  1  0.09123000  0.41648000  0.41003000  1.0
  O  O367  1  0.11874000  0.33206000  0.48908000  1.0
  O  O368  1  0.24071000  0.99255000  0.97929000  1.0
  O  O369  1  0.27149000  0.07409000  0.06115000  1.0
  O  O370  1  0.14840000  0.84801000  0.35640000  1.0
  O  O371  1  0.15340000  0.77844000  0.23167000  1.0
  O  O372  1  0.05455000  0.01936000  0.05666000  1.0
  O  O373  1  0.88730000  0.66785000  0.35580000  1.0
  O  O374  1  0.88091000  0.58115000  0.27868000  1.0
  O  O375  1  0.90877000  0.91648000  0.08997000  1.0
  O  O376  1  0.88126000  0.83206000  0.01092000  1.0
  O  O377  1  0.75929000  0.49255000  0.52071000  1.0
  O  O378  1  0.72851000  0.57409000  0.43885000  1.0
  O  O379  1  0.85160000  0.34801000  0.14360000  1.0
  O  O380  1  0.84660000  0.27844000  0.26833000  1.0
  O  O381  1  0.94545000  0.51936000  0.44334000  1.0
  O  O382  1  0.88730000  0.83215000  0.85580000  1.0
  O  O383  1  0.88091000  0.91885000  0.77868000  1.0
  O  O384  1  0.90877000  0.58352000  0.58997000  1.0
  O  O385  1  0.88126000  0.66794000  0.51092000  1.0
  O  O386  1  0.75929000  0.00745000  0.02071000  1.0
  O  O387  1  0.72851000  0.92591000  0.93885000  1.0
  O  O388  1  0.85160000  0.15199000  0.64360000  1.0
  O  O389  1  0.84660000  0.22156000  0.76833000  1.0
  O  O390  1  0.94545000  0.98064000  0.94334000  1.0
  O  O391  1  0.11270000  0.33215000  0.64420000  1.0
  O  O392  1  0.11909000  0.41885000  0.72132000  1.0
  O  O393  1  0.09123000  0.08352000  0.91003000  1.0
  O  O394  1  0.11874000  0.16794000  0.98908000  1.0
  O  O395  1  0.24071000  0.50745000  0.47929000  1.0
  O  O396  1  0.27149000  0.42591000  0.56115000  1.0
  O  O397  1  0.14840000  0.65199000  0.85640000  1.0
  O  O398  1  0.15340000  0.72156000  0.73167000  1.0
  O  O399  1  0.05455000  0.48064000  0.55666000  1.0
