# generated using pymatgen
data_Zn2H4C9O7
_symmetry_space_group_name_H-M   'P 1'
_cell_length_a   11.66950000
_cell_length_b   16.32350000
_cell_length_c   16.32350000
_cell_angle_alpha   90.00000000
_cell_angle_beta   90.00000000
_cell_angle_gamma   90.00000000
_symmetry_Int_Tables_number   1
_chemical_formula_structural   Zn2H4C9O7
_chemical_formula_sum   'Zn16 H32 C72 O56'
_cell_volume   3109.41590343
_cell_formula_units_Z   8
loop_
 _symmetry_equiv_pos_site_id
 _symmetry_equiv_pos_as_xyz
  1  'x, y, z'
loop_
 _atom_site_type_symbol
 _atom_site_label
 _atom_site_symmetry_multiplicity
 _atom_site_fract_x
 _atom_site_fract_y
 _atom_site_fract_z
 _atom_site_occupancy
  Zn  Zn0  1  0.13561000  0.38610000  0.34743000  1.0
  Zn  Zn1  1  0.13561000  0.61390000  0.65257000  1.0
  Zn  Zn2  1  0.13561000  0.65257000  0.38610000  1.0
  Zn  Zn3  1  0.13561000  0.34743000  0.61390000  1.0
  Zn  Zn4  1  0.36439000  0.11390000  0.84743000  1.0
  Zn  Zn5  1  0.36439000  0.88610000  0.15257000  1.0
  Zn  Zn6  1  0.36439000  0.84743000  0.88610000  1.0
  Zn  Zn7  1  0.36439000  0.15257000  0.11390000  1.0
  Zn  Zn8  1  0.86439000  0.61390000  0.65257000  1.0
  Zn  Zn9  1  0.86439000  0.38610000  0.34743000  1.0
  Zn  Zn10  1  0.86439000  0.34743000  0.61390000  1.0
  Zn  Zn11  1  0.86439000  0.65257000  0.38610000  1.0
  Zn  Zn12  1  0.63561000  0.88610000  0.15257000  1.0
  Zn  Zn13  1  0.63561000  0.11390000  0.84743000  1.0
  Zn  Zn14  1  0.63561000  0.15257000  0.11390000  1.0
  Zn  Zn15  1  0.63561000  0.84743000  0.88610000  1.0
  H  H16  1  0.17200000  0.15200000  0.24000000  1.0
  H  H17  1  0.17200000  0.84800000  0.76000000  1.0
  H  H18  1  0.17200000  0.76000000  0.15200000  1.0
  H  H19  1  0.17200000  0.24000000  0.84800000  1.0
  H  H20  1  0.32800000  0.34800000  0.74000000  1.0
  H  H21  1  0.32800000  0.65200000  0.26000000  1.0
  H  H22  1  0.32800000  0.74000000  0.65200000  1.0
  H  H23  1  0.32800000  0.26000000  0.34800000  1.0
  H  H24  1  0.82800000  0.84800000  0.76000000  1.0
  H  H25  1  0.82800000  0.15200000  0.24000000  1.0
  H  H26  1  0.82800000  0.24000000  0.84800000  1.0
  H  H27  1  0.82800000  0.76000000  0.15200000  1.0
  H  H28  1  0.67200000  0.65200000  0.26000000  1.0
  H  H29  1  0.67200000  0.34800000  0.74000000  1.0
  H  H30  1  0.67200000  0.26000000  0.34800000  1.0
  H  H31  1  0.67200000  0.74000000  0.65200000  1.0
  H  H32  1  0.00000000  0.48300000  0.40100000  1.0
  H  H33  1  0.00000000  0.95000000  0.17100000  1.0
  H  H34  1  0.00000000  0.51700000  0.59900000  1.0
  H  H35  1  0.00000000  0.05000000  0.82900000  1.0
  H  H36  1  0.00000000  0.59900000  0.48300000  1.0
  H  H37  1  0.00000000  0.82900000  0.95000000  1.0
  H  H38  1  0.00000000  0.40100000  0.51700000  1.0
  H  H39  1  0.00000000  0.17100000  0.05000000  1.0
  H  H40  1  0.50000000  0.01700000  0.90100000  1.0
  H  H41  1  0.50000000  0.55000000  0.67100000  1.0
  H  H42  1  0.50000000  0.98300000  0.09900000  1.0
  H  H43  1  0.50000000  0.45000000  0.32900000  1.0
  H  H44  1  0.50000000  0.90100000  0.98300000  1.0
  H  H45  1  0.50000000  0.67100000  0.45000000  1.0
  H  H46  1  0.50000000  0.09900000  0.01700000  1.0
  H  H47  1  0.50000000  0.32900000  0.55000000  1.0
  C  C48  1  0.10280000  0.12500000  0.23280000  1.0
  C  C49  1  0.10350000  0.04530000  0.20280000  1.0
  C  C50  1  0.21430000  0.00260000  0.18470000  1.0
  C  C51  1  0.10280000  0.87500000  0.76720000  1.0
  C  C52  1  0.10350000  0.95470000  0.79720000  1.0
  C  C53  1  0.21430000  0.99740000  0.81530000  1.0
  C  C54  1  0.10280000  0.76720000  0.12500000  1.0
  C  C55  1  0.10350000  0.79720000  0.04530000  1.0
  C  C56  1  0.21430000  0.81530000  0.00260000  1.0
  C  C57  1  0.10280000  0.23280000  0.87500000  1.0
  C  C58  1  0.10350000  0.20280000  0.95470000  1.0
  C  C59  1  0.21430000  0.18470000  0.99740000  1.0
  C  C60  1  0.39720000  0.37500000  0.73280000  1.0
  C  C61  1  0.39650000  0.45470000  0.70280000  1.0
  C  C62  1  0.28570000  0.49740000  0.68470000  1.0
  C  C63  1  0.39720000  0.62500000  0.26720000  1.0
  C  C64  1  0.39650000  0.54530000  0.29720000  1.0
  C  C65  1  0.28570000  0.50260000  0.31530000  1.0
  C  C66  1  0.39720000  0.73280000  0.62500000  1.0
  C  C67  1  0.39650000  0.70280000  0.54530000  1.0
  C  C68  1  0.28570000  0.68470000  0.50260000  1.0
  C  C69  1  0.39720000  0.26720000  0.37500000  1.0
  C  C70  1  0.39650000  0.29720000  0.45470000  1.0
  C  C71  1  0.28570000  0.31530000  0.49740000  1.0
  C  C72  1  0.89720000  0.87500000  0.76720000  1.0
  C  C73  1  0.89650000  0.95470000  0.79720000  1.0
  C  C74  1  0.78570000  0.99740000  0.81530000  1.0
  C  C75  1  0.89720000  0.12500000  0.23280000  1.0
  C  C76  1  0.89650000  0.04530000  0.20280000  1.0
  C  C77  1  0.78570000  0.00260000  0.18470000  1.0
  C  C78  1  0.89720000  0.23280000  0.87500000  1.0
  C  C79  1  0.89650000  0.20280000  0.95470000  1.0
  C  C80  1  0.78570000  0.18470000  0.99740000  1.0
  C  C81  1  0.89720000  0.76720000  0.12500000  1.0
  C  C82  1  0.89650000  0.79720000  0.04530000  1.0
  C  C83  1  0.78570000  0.81530000  0.00260000  1.0
  C  C84  1  0.60280000  0.62500000  0.26720000  1.0
  C  C85  1  0.60350000  0.54530000  0.29720000  1.0
  C  C86  1  0.71430000  0.50260000  0.31530000  1.0
  C  C87  1  0.60280000  0.37500000  0.73280000  1.0
  C  C88  1  0.60350000  0.45470000  0.70280000  1.0
  C  C89  1  0.71430000  0.49740000  0.68470000  1.0
  C  C90  1  0.60280000  0.26720000  0.37500000  1.0
  C  C91  1  0.60350000  0.29720000  0.45470000  1.0
  C  C92  1  0.71430000  0.31530000  0.49740000  1.0
  C  C93  1  0.60280000  0.73280000  0.62500000  1.0
  C  C94  1  0.60350000  0.70280000  0.54530000  1.0
  C  C95  1  0.71430000  0.68470000  0.50260000  1.0
  C  C96  1  0.00000000  0.16420000  0.24960000  1.0
  C  C97  1  0.00000000  0.00480000  0.18980000  1.0
  C  C98  1  0.00000000  0.24840000  0.28530000  1.0
  C  C99  1  0.00000000  0.83580000  0.75040000  1.0
  C  C100  1  0.00000000  0.99520000  0.81020000  1.0
  C  C101  1  0.00000000  0.75160000  0.71470000  1.0
  C  C102  1  0.00000000  0.75040000  0.16420000  1.0
  C  C103  1  0.00000000  0.81020000  0.00480000  1.0
  C  C104  1  0.00000000  0.71470000  0.24840000  1.0
  C  C105  1  0.00000000  0.24960000  0.83580000  1.0
  C  C106  1  0.00000000  0.18980000  0.99520000  1.0
  C  C107  1  0.00000000  0.28530000  0.75160000  1.0
  C  C108  1  0.50000000  0.33580000  0.74960000  1.0
  C  C109  1  0.50000000  0.49520000  0.68980000  1.0
  C  C110  1  0.50000000  0.25160000  0.78530000  1.0
  C  C111  1  0.50000000  0.66420000  0.25040000  1.0
  C  C112  1  0.50000000  0.50480000  0.31020000  1.0
  C  C113  1  0.50000000  0.74840000  0.21470000  1.0
  C  C114  1  0.50000000  0.74960000  0.66420000  1.0
  C  C115  1  0.50000000  0.68980000  0.50480000  1.0
  C  C116  1  0.50000000  0.78530000  0.74840000  1.0
  C  C117  1  0.50000000  0.25040000  0.33580000  1.0
  C  C118  1  0.50000000  0.31020000  0.49520000  1.0
  C  C119  1  0.50000000  0.21470000  0.25160000  1.0
  O  O120  1  0.09570000  0.27990000  0.30010000  1.0
  O  O121  1  0.30110000  0.04220000  0.16590000  1.0
  O  O122  1  0.21540000  0.92570000  0.18990000  1.0
  O  O123  1  0.09570000  0.72010000  0.69990000  1.0
  O  O124  1  0.30110000  0.95780000  0.83410000  1.0
  O  O125  1  0.21540000  0.07430000  0.81010000  1.0
  O  O126  1  0.09570000  0.69990000  0.27990000  1.0
  O  O127  1  0.30110000  0.83410000  0.04220000  1.0
  O  O128  1  0.21540000  0.81010000  0.92570000  1.0
  O  O129  1  0.09570000  0.30010000  0.72010000  1.0
  O  O130  1  0.30110000  0.16590000  0.95780000  1.0
  O  O131  1  0.21540000  0.18990000  0.07430000  1.0
  O  O132  1  0.40430000  0.22010000  0.80010000  1.0
  O  O133  1  0.19890000  0.45780000  0.66590000  1.0
  O  O134  1  0.28460000  0.57430000  0.68990000  1.0
  O  O135  1  0.40430000  0.77990000  0.19990000  1.0
  O  O136  1  0.19890000  0.54220000  0.33410000  1.0
  O  O137  1  0.28460000  0.42570000  0.31010000  1.0
  O  O138  1  0.40430000  0.80010000  0.77990000  1.0
  O  O139  1  0.19890000  0.66590000  0.54220000  1.0
  O  O140  1  0.28460000  0.68990000  0.42570000  1.0
  O  O141  1  0.40430000  0.19990000  0.22010000  1.0
  O  O142  1  0.19890000  0.33410000  0.45780000  1.0
  O  O143  1  0.28460000  0.31010000  0.57430000  1.0
  O  O144  1  0.90430000  0.72010000  0.69990000  1.0
  O  O145  1  0.69890000  0.95780000  0.83410000  1.0
  O  O146  1  0.78460000  0.07430000  0.81010000  1.0
  O  O147  1  0.90430000  0.27990000  0.30010000  1.0
  O  O148  1  0.69890000  0.04220000  0.16590000  1.0
  O  O149  1  0.78460000  0.92570000  0.18990000  1.0
  O  O150  1  0.90430000  0.30010000  0.72010000  1.0
  O  O151  1  0.69890000  0.16590000  0.95780000  1.0
  O  O152  1  0.78460000  0.18990000  0.07430000  1.0
  O  O153  1  0.90430000  0.69990000  0.27990000  1.0
  O  O154  1  0.69890000  0.83410000  0.04220000  1.0
  O  O155  1  0.78460000  0.81010000  0.92570000  1.0
  O  O156  1  0.59570000  0.77990000  0.19990000  1.0
  O  O157  1  0.80110000  0.54220000  0.33410000  1.0
  O  O158  1  0.71540000  0.42570000  0.31010000  1.0
  O  O159  1  0.59570000  0.22010000  0.80010000  1.0
  O  O160  1  0.80110000  0.45780000  0.66590000  1.0
  O  O161  1  0.71540000  0.57430000  0.68990000  1.0
  O  O162  1  0.59570000  0.19990000  0.22010000  1.0
  O  O163  1  0.80110000  0.33410000  0.45780000  1.0
  O  O164  1  0.71540000  0.31010000  0.57430000  1.0
  O  O165  1  0.59570000  0.80010000  0.77990000  1.0
  O  O166  1  0.80110000  0.66590000  0.54220000  1.0
  O  O167  1  0.71540000  0.68990000  0.42570000  1.0
  O  O168  1  0.00000000  0.43100000  0.39550000  1.0
  O  O169  1  0.00000000  0.56900000  0.60450000  1.0
  O  O170  1  0.00000000  0.60450000  0.43100000  1.0
  O  O171  1  0.00000000  0.39550000  0.56900000  1.0
  O  O172  1  0.50000000  0.06900000  0.89550000  1.0
  O  O173  1  0.50000000  0.93100000  0.10450000  1.0
  O  O174  1  0.50000000  0.89550000  0.93100000  1.0
  O  O175  1  0.50000000  0.10450000  0.06900000  1.0
