# generated using pymatgen
data_Ni3Mo12PH60C40(N15O17)2
_symmetry_space_group_name_H-M   'P 1'
_cell_length_a   13.00240000
_cell_length_b   13.47650000
_cell_length_c   19.01070000
_cell_angle_alpha   76.29400000
_cell_angle_beta   85.28400000
_cell_angle_gamma   74.76800000
_symmetry_Int_Tables_number   1
_chemical_formula_structural   Ni3Mo12PH60C40(N15O17)2
_chemical_formula_sum   'Ni3 Mo12 P1 H60 C40 N30 O34'
_cell_volume   3121.92630805
_cell_formula_units_Z   1
loop_
 _symmetry_equiv_pos_site_id
 _symmetry_equiv_pos_as_xyz
  1  'x, y, z'
loop_
 _atom_site_type_symbol
 _atom_site_label
 _atom_site_symmetry_multiplicity
 _atom_site_fract_x
 _atom_site_fract_y
 _atom_site_fract_z
 _atom_site_occupancy
  Ni  Ni0  1  0.65211000  0.76605000  0.85385000  1.0
  Ni  Ni1  1  0.34789000  0.23395000  0.14615000  1.0
  Ni  Ni2  1  0.00000000  0.00000000  0.50000000  1.0
  Mo  Mo3  1  0.79623000  0.18128000  0.88729000  1.0
  Mo  Mo4  1  0.76880000  0.14109000  0.07872000  1.0
  Mo  Mo5  1  0.01807000  0.02419000  0.80972000  1.0
  Mo  Mo6  1  0.82182000  0.86267000  0.10589000  1.0
  Mo  Mo7  1  0.82894000  0.90455000  0.91497000  1.0
  Mo  Mo8  1  0.04440000  0.72251000  0.01585000  1.0
  Mo  Mo9  1  0.20377000  0.81872000  0.11271000  1.0
  Mo  Mo10  1  0.23120000  0.85891000  0.92128000  1.0
  Mo  Mo11  1  0.98193000  0.97581000  0.19028000  1.0
  Mo  Mo12  1  0.17818000  0.13733000  0.89411000  1.0
  Mo  Mo13  1  0.17106000  0.09545000  0.08503000  1.0
  Mo  Mo14  1  0.95560000  0.27749000  0.98415000  1.0
  P  P15  1  0.00000000  0.00000000  0.00000000  1.0
  H  H16  1  0.12450000  0.29280000  0.67140000  1.0
  H  H17  1  0.02830000  0.24480000  0.70320000  1.0
  H  H18  1  0.85810000  0.11230000  0.35180000  1.0
  H  H19  1  0.01680000  0.40940000  0.58700000  1.0
  H  H20  1  0.92130000  0.36370000  0.62340000  1.0
  H  H21  1  0.61770000  0.98010000  0.50920000  1.0
  H  H22  1  0.55500000  0.89440000  0.54460000  1.0
  H  H23  1  0.52730000  0.08700000  0.57530000  1.0
  H  H24  1  0.45250000  0.01060000  0.60590000  1.0
  H  H25  1  0.95030000  0.52220000  0.65770000  1.0
  H  H26  1  0.03600000  0.43980000  0.70920000  1.0
  H  H27  1  0.76960000  0.40140000  0.26940000  1.0
  H  H28  1  0.87560000  0.42950000  0.23600000  1.0
  H  H29  1  0.90770000  0.63590000  0.88490000  1.0
  H  H30  1  0.82470000  0.43190000  0.71710000  1.0
  H  H31  1  0.91260000  0.36700000  0.77370000  1.0
  H  H32  1  0.22150000  0.02380000  0.55710000  1.0
  H  H33  1  0.79630000  0.64780000  0.00070000  1.0
  H  H34  1  0.92380000  0.27260000  0.19560000  1.0
  H  H35  1  0.81890000  0.24440000  0.23100000  1.0
  H  H36  1  0.71090000  0.59640000  0.76020000  1.0
  H  H37  1  0.80040000  0.87590000  0.73010000  1.0
  H  H38  1  0.70160000  0.42490000  0.15810000  1.0
  H  H39  1  0.81350000  0.42070000  0.11940000  1.0
  H  H40  1  0.49910000  0.88720000  0.71560000  1.0
  H  H41  1  0.81150000  0.58190000  0.14200000  1.0
  H  H42  1  0.70160000  0.58580000  0.18320000  1.0
  H  H43  1  0.94020000  0.20120000  0.57550000  1.0
  H  H44  1  0.49600000  0.72040000  0.98840000  1.0
  H  H45  1  0.09010000  0.19890000  0.41270000  1.0
  H  H46  1  0.87550000  0.70720000  0.32860000  1.0
  H  H47  1  0.97170000  0.75520000  0.29680000  1.0
  H  H48  1  0.14190000  0.88770000  0.64820000  1.0
  H  H49  1  0.98320000  0.59060000  0.41300000  1.0
  H  H50  1  0.07870000  0.63630000  0.37660000  1.0
  H  H51  1  0.38230000  0.01990000  0.49080000  1.0
  H  H52  1  0.44500000  0.10560000  0.45540000  1.0
  H  H53  1  0.47270000  0.91300000  0.42470000  1.0
  H  H54  1  0.54750000  0.98940000  0.39410000  1.0
  H  H55  1  0.04970000  0.47780000  0.34230000  1.0
  H  H56  1  0.96400000  0.56020000  0.29080000  1.0
  H  H57  1  0.23040000  0.59860000  0.73060000  1.0
  H  H58  1  0.12440000  0.57050000  0.76400000  1.0
  H  H59  1  0.09230000  0.36410000  0.11510000  1.0
  H  H60  1  0.17530000  0.56810000  0.28290000  1.0
  H  H61  1  0.08740000  0.63300000  0.22630000  1.0
  H  H62  1  0.77850000  0.97620000  0.44290000  1.0
  H  H63  1  0.20370000  0.35220000  0.99930000  1.0
  H  H64  1  0.07620000  0.72740000  0.80440000  1.0
  H  H65  1  0.18110000  0.75560000  0.76900000  1.0
  H  H66  1  0.28910000  0.40360000  0.23980000  1.0
  H  H67  1  0.19960000  0.12410000  0.26990000  1.0
  H  H68  1  0.29840000  0.57510000  0.84190000  1.0
  H  H69  1  0.18650000  0.57930000  0.88060000  1.0
  H  H70  1  0.50090000  0.11280000  0.28440000  1.0
  H  H71  1  0.18850000  0.41810000  0.85800000  1.0
  H  H72  1  0.29840000  0.41420000  0.81680000  1.0
  H  H73  1  0.05980000  0.79880000  0.42450000  1.0
  H  H74  1  0.50400000  0.27960000  0.01160000  1.0
  H  H75  1  0.90990000  0.80110000  0.58730000  1.0
  C  C76  1  0.05800000  0.28060000  0.65920000  1.0
  C  C77  1  0.91030000  0.14730000  0.35380000  1.0
  C  C78  1  0.98900000  0.37570000  0.63270000  1.0
  C  C79  1  0.55000000  0.96960000  0.53030000  1.0
  C  C80  1  0.52380000  0.01390000  0.58780000  1.0
  C  C81  1  0.96980000  0.44980000  0.68530000  1.0
  C  C82  1  0.82200000  0.39380000  0.23040000  1.0
  C  C83  1  0.87980000  0.61070000  0.85110000  1.0
  C  C84  1  0.88780000  0.43410000  0.73990000  1.0
  C  C85  1  0.16630000  0.07800000  0.56810000  1.0
  C  C86  1  0.72460000  0.65080000  0.01120000  1.0
  C  C87  1  0.87310000  0.27990000  0.23560000  1.0
  C  C88  1  0.77210000  0.59000000  0.78480000  1.0
  C  C89  1  0.73250000  0.89100000  0.71170000  1.0
  C  C90  1  0.76770000  0.44550000  0.15790000  1.0
  C  C91  1  0.56840000  0.89420000  0.70540000  1.0
  C  C92  1  0.74500000  0.56160000  0.14360000  1.0
  C  C93  1  0.01360000  0.17270000  0.57660000  1.0
  C  C94  1  0.56500000  0.68900000  0.00480000  1.0
  C  C95  1  0.03560000  0.19620000  0.38500000  1.0
  C  C96  1  0.94200000  0.71940000  0.34080000  1.0
  C  C97  1  0.08970000  0.85270000  0.64620000  1.0
  C  C98  1  0.01100000  0.62430000  0.36730000  1.0
  C  C99  1  0.45000000  0.03040000  0.46970000  1.0
  C  C100  1  0.47620000  0.98610000  0.41220000  1.0
  C  C101  1  0.03020000  0.55020000  0.31470000  1.0
  C  C102  1  0.17800000  0.60620000  0.76960000  1.0
  C  C103  1  0.12020000  0.38930000  0.14890000  1.0
  C  C104  1  0.11220000  0.56590000  0.26010000  1.0
  C  C105  1  0.83370000  0.92200000  0.43190000  1.0
  C  C106  1  0.27540000  0.34920000  0.98880000  1.0
  C  C107  1  0.12690000  0.72010000  0.76440000  1.0
  C  C108  1  0.22790000  0.41000000  0.21520000  1.0
  C  C109  1  0.26750000  0.10900000  0.28830000  1.0
  C  C110  1  0.23230000  0.55450000  0.84210000  1.0
  C  C111  1  0.43160000  0.10580000  0.29460000  1.0
  C  C112  1  0.25500000  0.43840000  0.85640000  1.0
  C  C113  1  0.98640000  0.82730000  0.42340000  1.0
  C  C114  1  0.43500000  0.31100000  0.99520000  1.0
  C  C115  1  0.96440000  0.80380000  0.61500000  1.0
  N  N116  1  0.60590000  0.94890000  0.64310000  1.0
  N  N117  1  0.70560000  0.95070000  0.64810000  1.0
  N  N118  1  0.65220000  0.85270000  0.74880000  1.0
  N  N119  1  0.86010000  0.52090000  0.78010000  1.0
  N  N120  1  0.93560000  0.53410000  0.82220000  1.0
  N  N121  1  0.77840000  0.65050000  0.82830000  1.0
  N  N122  1  0.65160000  0.69220000  0.96310000  1.0
  N  N123  1  0.58780000  0.63450000  0.07380000  1.0
  N  N124  1  0.68940000  0.61390000  0.07550000  1.0
  N  N125  1  0.92890000  0.22770000  0.30430000  1.0
  N  N126  1  0.01190000  0.26190000  0.32290000  1.0
  N  N127  1  0.97860000  0.12450000  0.40740000  1.0
  N  N128  1  0.06450000  0.09040000  0.55150000  1.0
  N  N129  1  0.18190000  0.14780000  0.60080000  1.0
  N  N130  1  0.08300000  0.20890000  0.60390000  1.0
  N  N131  1  0.39410000  0.05110000  0.35690000  1.0
  N  N132  1  0.29440000  0.04930000  0.35190000  1.0
  N  N133  1  0.34780000  0.14730000  0.25120000  1.0
  N  N134  1  0.13990000  0.47910000  0.21990000  1.0
  N  N135  1  0.06440000  0.46590000  0.17780000  1.0
  N  N136  1  0.22160000  0.34950000  0.17170000  1.0
  N  N137  1  0.34840000  0.30780000  0.03690000  1.0
  N  N138  1  0.41220000  0.36550000  0.92620000  1.0
  N  N139  1  0.31060000  0.38610000  0.92450000  1.0
  N  N140  1  0.07110000  0.77230000  0.69570000  1.0
  N  N141  1  0.98810000  0.73810000  0.67710000  1.0
  N  N142  1  0.02140000  0.87550000  0.59260000  1.0
  N  N143  1  0.93550000  0.90960000  0.44850000  1.0
  N  N144  1  0.81810000  0.85220000  0.39920000  1.0
  N  N145  1  0.91700000  0.79110000  0.39610000  1.0
  O  O146  1  0.92100000  0.99730000  0.06260000  1.0
  O  O147  1  0.95000000  0.91000000  0.00920000  1.0
  O  O148  1  0.91880000  0.10480000  0.99520000  1.0
  O  O149  1  0.93460000  0.01860000  0.92970000  1.0
  O  O150  1  0.89590000  0.14350000  0.81940000  1.0
  O  O151  1  0.75990000  0.04650000  0.89410000  1.0
  O  O152  1  0.86550000  0.08300000  0.15990000  1.0
  O  O153  1  0.74280000  0.00950000  0.09540000  1.0
  O  O154  1  0.92560000  0.93770000  0.83620000  1.0
  O  O155  1  0.93940000  0.77990000  0.94460000  1.0
  O  O156  1  0.84900000  0.24500000  0.05060000  1.0
  O  O157  1  0.10270000  0.12010000  0.82210000  1.0
  O  O158  1  0.77350000  0.88540000  0.00650000  1.0
  O  O159  1  0.75520000  0.85280000  0.87400000  1.0
  O  O160  1  0.86420000  0.27360000  0.90990000  1.0
  O  O161  1  0.92940000  0.75010000  0.08560000  1.0
  O  O162  1  0.72620000  0.17280000  0.98450000  1.0
  O  O163  1  0.07900000  0.00270000  0.93740000  1.0
  O  O164  1  0.05000000  0.09000000  0.99080000  1.0
  O  O165  1  0.08120000  0.89520000  0.00480000  1.0
  O  O166  1  0.06540000  0.98140000  0.07030000  1.0
  O  O167  1  0.10410000  0.85650000  0.18060000  1.0
  O  O168  1  0.24010000  0.95350000  0.10590000  1.0
  O  O169  1  0.13450000  0.91700000  0.84010000  1.0
  O  O170  1  0.25720000  0.99050000  0.90460000  1.0
  O  O171  1  0.07440000  0.06230000  0.16380000  1.0
  O  O172  1  0.06060000  0.22010000  0.05540000  1.0
  O  O173  1  0.15100000  0.75500000  0.94940000  1.0
  O  O174  1  0.89730000  0.87990000  0.17790000  1.0
  O  O175  1  0.22650000  0.11460000  0.99350000  1.0
  O  O176  1  0.24480000  0.14720000  0.12600000  1.0
  O  O177  1  0.13580000  0.72640000  0.09010000  1.0
  O  O178  1  0.07060000  0.24990000  0.91440000  1.0
  O  O179  1  0.27380000  0.82720000  0.01550000  1.0
