# generated using pymatgen
data_Zn4H16C30O13
_symmetry_space_group_name_H-M   'P 1'
_cell_length_a   17.30430000
_cell_length_b   18.37700000
_cell_length_c   17.95650000
_cell_angle_alpha   90.00000000
_cell_angle_beta   90.00000000
_cell_angle_gamma   90.00000000
_symmetry_Int_Tables_number   1
_chemical_formula_structural   Zn4H16C30O13
_chemical_formula_sum   'Zn16 H64 C120 O52'
_cell_volume   5710.18713103
_cell_formula_units_Z   4
loop_
 _symmetry_equiv_pos_site_id
 _symmetry_equiv_pos_as_xyz
  1  'x, y, z'
loop_
 _atom_site_type_symbol
 _atom_site_label
 _atom_site_symmetry_multiplicity
 _atom_site_fract_x
 _atom_site_fract_y
 _atom_site_fract_z
 _atom_site_occupancy
  Zn  Zn0  1  0.82343000  0.68187000  0.05543000  1.0
  Zn  Zn1  1  0.70347000  0.18217000  0.38723000  1.0
  Zn  Zn2  1  0.82335000  0.68180000  0.88725000  1.0
  Zn  Zn3  1  0.70327000  0.18165000  0.55539000  1.0
  Zn  Zn4  1  0.69809000  0.60007000  0.97216000  1.0
  Zn  Zn5  1  0.69856000  0.76411000  0.97082000  1.0
  Zn  Zn6  1  0.82864000  0.10012000  0.47186000  1.0
  Zn  Zn7  1  0.82835000  0.26413000  0.47115000  1.0
  Zn  Zn8  1  0.17656000  0.31789000  0.11217000  1.0
  Zn  Zn9  1  0.29676000  0.81827000  0.44386000  1.0
  Zn  Zn10  1  0.17649000  0.31810000  0.94398000  1.0
  Zn  Zn11  1  0.29638000  0.81785000  0.61202000  1.0
  Zn  Zn12  1  0.30169000  0.39997000  0.02736000  1.0
  Zn  Zn13  1  0.30147000  0.23591000  0.02840000  1.0
  Zn  Zn14  1  0.17147000  0.90004000  0.52724000  1.0
  Zn  Zn15  1  0.17146000  0.73603000  0.52822000  1.0
  H  H16  1  0.31684000  0.57975000  0.02863000  1.0
  H  H17  1  0.87022000  0.52205000  0.21730000  1.0
  H  H18  1  0.65253000  0.44143000  0.13476000  1.0
  H  H19  1  0.65551000  0.34344000  0.22693000  1.0
  H  H20  1  0.87207000  0.42547000  0.31123000  1.0
  H  H21  1  0.06333000  0.72050000  0.85820000  1.0
  H  H22  1  0.20487000  0.72276000  0.85930000  1.0
  H  H23  1  0.20455000  0.64265000  0.08495000  1.0
  H  H24  1  0.06769000  0.08310000  0.53590000  1.0
  H  H25  1  0.67413000  0.03687000  0.20977000  1.0
  H  H26  1  0.85675000  0.92445000  0.32606000  1.0
  H  H27  1  0.85450000  0.82827000  0.23199000  1.0
  H  H28  1  0.67210000  0.94076000  0.11555000  1.0
  H  H29  1  0.46349000  0.15353000  0.58792000  1.0
  H  H30  1  0.06828000  0.28146000  0.40785000  1.0
  H  H31  1  0.21023000  0.28042000  0.40687000  1.0
  H  H32  1  0.45851000  0.57857000  0.02680000  1.0
  H  H33  1  0.85412000  0.53523000  0.71152000  1.0
  H  H34  1  0.67139000  0.42283000  0.82770000  1.0
  H  H35  1  0.67358000  0.32671000  0.73349000  1.0
  H  H36  1  0.85607000  0.43926000  0.61722000  1.0
  H  H37  1  0.06289000  0.64232000  0.08459000  1.0
  H  H38  1  0.45860000  0.78679000  0.91627000  1.0
  H  H39  1  0.31675000  0.78665000  0.91600000  1.0
  H  H40  1  0.20964000  0.08353000  0.53680000  1.0
  H  H41  1  0.65769000  0.02284000  0.71844000  1.0
  H  H42  1  0.87200000  0.93860000  0.63156000  1.0
  H  H43  1  0.86903000  0.84054000  0.72368000  1.0
  H  H44  1  0.65591000  0.92617000  0.81220000  1.0
  H  H45  1  0.46302000  0.20703000  0.35406000  1.0
  H  H46  1  0.32132000  0.20771000  0.35457000  1.0
  H  H47  1  0.32181000  0.15326000  0.58804000  1.0
  H  H48  1  0.68355000  0.41993000  0.97171000  1.0
  H  H49  1  0.14694000  0.46360000  0.28935000  1.0
  H  H50  1  0.32670000  0.57781000  0.17075000  1.0
  H  H51  1  0.32453000  0.67406000  0.26479000  1.0
  H  H52  1  0.14514000  0.55969000  0.38357000  1.0
  H  H53  1  0.93676000  0.35446000  0.91436000  1.0
  H  H54  1  0.93231000  0.91661000  0.46199000  1.0
  H  H55  1  0.34351000  0.97790000  0.28176000  1.0
  H  H56  1  0.12773000  0.06064000  0.36680000  1.0
  H  H57  1  0.13071000  0.15862000  0.27465000  1.0
  H  H58  1  0.34545000  0.07467000  0.18805000  1.0
  H  H59  1  0.53685000  0.78723000  0.64393000  1.0
  H  H60  1  0.93170000  0.71963000  0.59232000  1.0
  H  H61  1  0.78995000  0.72059000  0.59338000  1.0
  H  H62  1  0.54184000  0.42176000  0.97368000  1.0
  H  H63  1  0.12837000  0.47933000  0.78355000  1.0
  H  H64  1  0.34773000  0.55801000  0.86393000  1.0
  H  H65  1  0.34501000  0.65570000  0.77138000  1.0
  H  H66  1  0.12655000  0.57583000  0.68951000  1.0
  H  H67  1  0.93658000  0.27973000  0.14199000  1.0
  H  H68  1  0.79500000  0.27745000  0.14102000  1.0
  H  H69  1  0.79510000  0.35467000  0.91434000  1.0
  H  H70  1  0.54082000  0.21285000  0.08291000  1.0
  H  H71  1  0.68271000  0.21259000  0.08351000  1.0
  H  H72  1  0.79051000  0.91638000  0.46129000  1.0
  H  H73  1  0.32462000  0.96239000  0.79028000  1.0
  H  H74  1  0.14657000  0.07802000  0.67071000  1.0
  H  H75  1  0.14914000  0.17431000  0.76465000  1.0
  H  H76  1  0.32683000  0.05850000  0.88442000  1.0
  H  H77  1  0.53629000  0.85185000  0.41300000  1.0
  H  H78  1  0.67774000  0.85268000  0.41282000  1.0
  H  H79  1  0.67845000  0.78742000  0.64365000  1.0
  C  C80  1  0.76502000  0.31693000  0.33495000  1.0
  C  C81  1  0.34693000  0.62544000  0.00427000  1.0
  C  C82  1  0.76402000  0.37607000  0.27698000  1.0
  C  C83  1  0.76163000  0.48945000  0.16741000  1.0
  C  C84  1  0.76097000  0.54809000  0.10893000  1.0
  C  C85  1  0.82272000  0.48371000  0.21895000  1.0
  C  C86  1  0.70140000  0.43802000  0.17214000  1.0
  C  C87  1  0.70284000  0.38196000  0.22557000  1.0
  C  C88  1  0.82381000  0.42807000  0.27292000  1.0
  C  C89  1  0.09327000  0.70341000  0.90818000  1.0
  C  C90  1  0.17481000  0.70497000  0.90891000  1.0
  C  C91  1  0.17462000  0.65964000  0.03492000  1.0
  C  C92  1  0.76184000  0.81693000  0.10744000  1.0
  C  C93  1  0.09795000  0.12675000  0.50784000  1.0
  C  C94  1  0.76296000  0.87604000  0.16571000  1.0
  C  C95  1  0.76543000  0.98891000  0.27625000  1.0
  C  C96  1  0.76619000  0.04782000  0.33467000  1.0
  C  C97  1  0.71389000  0.99171000  0.21548000  1.0
  C  C98  1  0.81588000  0.92875000  0.28062000  1.0
  C  C99  1  0.81462000  0.87333000  0.22639000  1.0
  C  C100  1  0.71269000  0.93631000  0.16121000  1.0
  C  C101  1  0.43339000  0.16544000  0.53644000  1.0
  C  C102  1  0.09833000  0.23785000  0.43628000  1.0
  C  C103  1  0.17991000  0.23707000  0.43542000  1.0
  C  C104  1  0.76554000  0.31606000  0.60835000  1.0
  C  C105  1  0.42846000  0.62454000  0.00269000  1.0
  C  C106  1  0.76490000  0.37472000  0.66709000  1.0
  C  C107  1  0.76251000  0.48745000  0.77773000  1.0
  C  C108  1  0.76135000  0.54673000  0.83575000  1.0
  C  C109  1  0.81424000  0.49014000  0.71712000  1.0
  C  C110  1  0.71215000  0.42722000  0.78218000  1.0
  C  C111  1  0.71339000  0.37184000  0.72789000  1.0
  C  C112  1  0.81540000  0.43482000  0.66281000  1.0
  C  C113  1  0.09306000  0.65980000  0.03484000  1.0
  C  C114  1  0.42846000  0.74110000  0.94093000  1.0
  C  C115  1  0.34687000  0.74089000  0.94053000  1.0
  C  C116  1  0.76143000  0.81602000  0.83405000  1.0
  C  C117  1  0.17952000  0.12715000  0.50873000  1.0
  C  C118  1  0.76218000  0.87490000  0.77578000  1.0
  C  C119  1  0.76461000  0.98852000  0.66642000  1.0
  C  C120  1  0.76538000  0.04743000  0.60818000  1.0
  C  C121  1  0.70444000  0.98366000  0.71905000  1.0
  C  C122  1  0.82386000  0.93599000  0.66989000  1.0
  C  C123  1  0.82234000  0.87977000  0.72317000  1.0
  C  C124  1  0.70335000  0.92794000  0.77291000  1.0
  C  C125  1  0.43315000  0.19533000  0.40567000  1.0
  C  C126  1  0.35156000  0.19610000  0.40601000  1.0
  C  C127  1  0.35183000  0.16493000  0.53645000  1.0
  C  C128  1  0.47070000  0.68266000  0.97155000  1.0
  C  C129  1  0.96362000  0.68147000  0.97125000  1.0
  C  C130  1  0.55794000  0.68241000  0.97133000  1.0
  C  C131  1  0.30456000  0.68320000  0.97253000  1.0
  C  C132  1  0.05089000  0.68140000  0.97136000  1.0
  C  C133  1  0.21705000  0.68272000  0.97216000  1.0
  C  C134  1  0.05596000  0.18234000  0.47193000  1.0
  C  C135  1  0.56301000  0.18117000  0.47108000  1.0
  C  C136  1  0.96881000  0.18230000  0.47162000  1.0
  C  C137  1  0.22199000  0.18181000  0.47189000  1.0
  C  C138  1  0.47563000  0.18059000  0.47104000  1.0
  C  C139  1  0.30942000  0.18096000  0.47144000  1.0
  C  C140  1  0.23424000  0.68388000  0.39106000  1.0
  C  C141  1  0.65320000  0.37426000  0.99589000  1.0
  C  C142  1  0.23478000  0.62516000  0.33242000  1.0
  C  C143  1  0.23704000  0.51228000  0.22192000  1.0
  C  C144  1  0.23820000  0.45300000  0.16387000  1.0
  C  C145  1  0.18615000  0.50913000  0.28317000  1.0
  C  C146  1  0.28661000  0.57303000  0.21680000  1.0
  C  C147  1  0.28539000  0.62851000  0.27098000  1.0
  C  C148  1  0.18507000  0.56454000  0.33742000  1.0
  C  C149  1  0.90668000  0.33795000  0.96448000  1.0
  C  C150  1  0.23890000  0.18379000  0.16516000  1.0
  C  C151  1  0.90203000  0.87331000  0.49064000  1.0
  C  C152  1  0.23825000  0.12495000  0.22340000  1.0
  C  C153  1  0.23584000  0.01146000  0.33280000  1.0
  C  C154  1  0.23493000  0.95252000  0.39097000  1.0
  C  C155  1  0.29647000  0.01675000  0.28070000  1.0
  C  C156  1  0.17621000  0.06358000  0.32889000  1.0
  C  C157  1  0.17770000  0.11972000  0.27557000  1.0
  C  C158  1  0.29759000  0.07246000  0.22684000  1.0
  C  C159  1  0.56674000  0.80159000  0.59300000  1.0
  C  C160  1  0.90167000  0.76296000  0.56345000  1.0
  C  C161  1  0.82011000  0.76373000  0.56437000  1.0
  C  C162  1  0.23455000  0.68324000  0.66451000  1.0
  C  C163  1  0.57168000  0.37551000  0.99750000  1.0
  C  C164  1  0.23551000  0.62415000  0.72254000  1.0
  C  C165  1  0.23784000  0.51091000  0.83232000  1.0
  C  C166  1  0.23860000  0.45221000  0.89077000  1.0
  C  C167  1  0.17627000  0.51718000  0.78136000  1.0
  C  C168  1  0.29854000  0.56180000  0.82696000  1.0
  C  C169  1  0.29719000  0.61775000  0.77337000  1.0
  C  C170  1  0.17519000  0.57276000  0.72732000  1.0
  C  C171  1  0.90660000  0.29617000  0.09180000  1.0
  C  C172  1  0.82505000  0.29466000  0.09117000  1.0
  C  C173  1  0.82512000  0.33830000  0.96454000  1.0
  C  C174  1  0.57116000  0.25861000  0.05862000  1.0
  C  C175  1  0.65276000  0.25853000  0.05916000  1.0
  C  C176  1  0.23878000  0.18350000  0.89140000  1.0
  C  C177  1  0.82049000  0.87297000  0.48990000  1.0
  C  C178  1  0.23809000  0.12471000  0.83280000  1.0
  C  C179  1  0.23536000  0.01179000  0.72231000  1.0
  C  C180  1  0.23423000  0.95261000  0.66415000  1.0
  C  C181  1  0.28587000  0.00823000  0.78384000  1.0
  C  C182  1  0.18640000  0.07296000  0.71692000  1.0
  C  C183  1  0.18783000  0.12843000  0.77110000  1.0
  C  C184  1  0.28718000  0.06365000  0.83808000  1.0
  C  C185  1  0.56640000  0.83760000  0.46384000  1.0
  C  C186  1  0.64792000  0.83840000  0.46385000  1.0
  C  C187  1  0.64834000  0.80125000  0.59268000  1.0
  C  C188  1  0.52917000  0.31738000  0.02828000  1.0
  C  C189  1  0.03626000  0.31760000  0.02830000  1.0
  C  C190  1  0.44193000  0.31778000  0.02827000  1.0
  C  C191  1  0.69531000  0.31619000  0.02740000  1.0
  C  C192  1  0.94895000  0.31735000  0.02825000  1.0
  C  C193  1  0.78277000  0.31626000  0.02773000  1.0
  C  C194  1  0.94401000  0.81814000  0.52721000  1.0
  C  C195  1  0.43689000  0.81859000  0.52826000  1.0
  C  C196  1  0.03116000  0.81810000  0.52754000  1.0
  C  C197  1  0.77797000  0.81869000  0.52741000  1.0
  C  C198  1  0.52425000  0.81923000  0.52839000  1.0
  C  C199  1  0.69045000  0.81956000  0.52807000  1.0
  O  O200  1  0.71483000  0.54304000  0.05380000  1.0
  O  O201  1  0.81112000  0.32184000  0.39015000  1.0
  O  O202  1  0.80690000  0.60218000  0.11443000  1.0
  O  O203  1  0.71955000  0.26252000  0.32890000  1.0
  O  O204  1  0.92679000  0.68091000  0.03285000  1.0
  O  O205  1  0.81201000  0.04274000  0.39016000  1.0
  O  O206  1  0.71584000  0.82196000  0.05205000  1.0
  O  O207  1  0.72063000  0.10221000  0.32863000  1.0
  O  O208  1  0.80713000  0.76234000  0.11359000  1.0
  O  O209  1  0.59992000  0.18187000  0.40952000  1.0
  O  O210  1  0.71526000  0.54196000  0.89108000  1.0
  O  O211  1  0.81140000  0.32137000  0.55288000  1.0
  O  O212  1  0.80670000  0.60124000  0.82941000  1.0
  O  O213  1  0.71996000  0.26166000  0.61411000  1.0
  O  O214  1  0.92684000  0.68226000  0.90962000  1.0
  O  O215  1  0.81156000  0.04256000  0.55305000  1.0
  O  O216  1  0.71560000  0.82127000  0.88942000  1.0
  O  O217  1  0.71960000  0.10160000  0.61394000  1.0
  O  O218  1  0.80689000  0.76159000  0.82817000  1.0
  O  O219  1  0.59982000  0.18100000  0.53273000  1.0
  O  O220  1  0.76088000  0.68196000  0.97140000  1.0
  O  O221  1  0.59455000  0.62210000  0.97271000  1.0
  O  O222  1  0.59491000  0.74253000  0.97000000  1.0
  O  O223  1  0.76591000  0.18202000  0.47140000  1.0
  O  O224  1  0.93214000  0.12204000  0.47302000  1.0
  O  O225  1  0.93199000  0.24248000  0.47009000  1.0
  O  O226  1  0.28426000  0.45788000  0.10852000  1.0
  O  O227  1  0.18838000  0.67867000  0.44655000  1.0
  O  O228  1  0.19294000  0.39842000  0.17017000  1.0
  O  O229  1  0.27992000  0.73822000  0.38521000  1.0
  O  O230  1  0.07305000  0.31702000  0.08991000  1.0
  O  O231  1  0.18865000  0.95741000  0.44601000  1.0
  O  O232  1  0.28463000  0.17858000  0.10971000  1.0
  O  O233  1  0.28070000  0.89833000  0.38527000  1.0
  O  O234  1  0.19335000  0.23813000  0.17110000  1.0
  O  O235  1  0.40018000  0.81881000  0.46656000  1.0
  O  O236  1  0.28494000  0.45712000  0.94576000  1.0
  O  O237  1  0.18843000  0.67834000  0.60932000  1.0
  O  O238  1  0.19266000  0.39812000  0.88529000  1.0
  O  O239  1  0.28007000  0.73761000  0.67050000  1.0
  O  O240  1  0.07307000  0.31839000  0.96668000  1.0
  O  O241  1  0.18839000  0.95766000  0.60866000  1.0
  O  O242  1  0.28447000  0.17823000  0.94699000  1.0
  O  O243  1  0.27948000  0.89802000  0.67041000  1.0
  O  O244  1  0.19338000  0.23802000  0.88538000  1.0
  O  O245  1  0.39992000  0.81785000  0.58977000  1.0
  O  O246  1  0.23903000  0.31798000  0.02797000  1.0
  O  O247  1  0.40533000  0.37810000  0.02698000  1.0
  O  O248  1  0.40500000  0.25767000  0.02933000  1.0
  O  O249  1  0.23405000  0.81806000  0.52784000  1.0
  O  O250  1  0.06792000  0.87831000  0.52610000  1.0
  O  O251  1  0.06788000  0.75787000  0.52915000  1.0
