# generated using pymatgen
data_In5H18C30N9O13
_symmetry_space_group_name_H-M   'P 1'
_cell_length_a   13.87300000
_cell_length_b   13.87300000
_cell_length_c   18.45500000
_cell_angle_alpha   90.00000000
_cell_angle_beta   90.00000000
_cell_angle_gamma   120.00000000
_symmetry_Int_Tables_number   1
_chemical_formula_structural   In5H18C30N9O13
_chemical_formula_sum   'In10 H36 C60 N18 O26'
_cell_volume   3075.99378596
_cell_formula_units_Z   2
loop_
 _symmetry_equiv_pos_site_id
 _symmetry_equiv_pos_as_xyz
  1  'x, y, z'
loop_
 _atom_site_type_symbol
 _atom_site_label
 _atom_site_symmetry_multiplicity
 _atom_site_fract_x
 _atom_site_fract_y
 _atom_site_fract_z
 _atom_site_occupancy
  In  In0  1  0.24877000  0.49754000  0.25000000  1.0
  In  In1  1  0.50246000  0.75123000  0.25000000  1.0
  In  In2  1  0.24877000  0.75123000  0.25000000  1.0
  In  In3  1  0.75123000  0.50246000  0.75000000  1.0
  In  In4  1  0.49754000  0.24877000  0.75000000  1.0
  In  In5  1  0.75123000  0.24877000  0.75000000  1.0
  In  In6  1  0.00000000  0.00000000  0.13390000  1.0
  In  In7  1  0.00000000  0.00000000  0.63390000  1.0
  In  In8  1  0.00000000  0.00000000  0.86610000  1.0
  In  In9  1  0.00000000  0.00000000  0.36610000  1.0
  H  H10  1  0.32870000  0.37770000  0.44420000  1.0
  H  H11  1  0.62230000  0.95100000  0.44420000  1.0
  H  H12  1  0.04900000  0.67130000  0.44420000  1.0
  H  H13  1  0.67130000  0.62230000  0.94420000  1.0
  H  H14  1  0.37770000  0.04900000  0.94420000  1.0
  H  H15  1  0.95100000  0.32870000  0.94420000  1.0
  H  H16  1  0.37770000  0.32870000  0.55580000  1.0
  H  H17  1  0.95100000  0.62230000  0.55580000  1.0
  H  H18  1  0.67130000  0.04900000  0.55580000  1.0
  H  H19  1  0.62230000  0.67130000  0.05580000  1.0
  H  H20  1  0.04900000  0.37770000  0.05580000  1.0
  H  H21  1  0.32870000  0.95100000  0.05580000  1.0
  H  H22  1  0.67130000  0.62230000  0.55580000  1.0
  H  H23  1  0.37770000  0.04900000  0.55580000  1.0
  H  H24  1  0.95100000  0.32870000  0.55580000  1.0
  H  H25  1  0.32870000  0.37770000  0.05580000  1.0
  H  H26  1  0.62230000  0.95100000  0.05580000  1.0
  H  H27  1  0.04900000  0.67130000  0.05580000  1.0
  H  H28  1  0.62230000  0.67130000  0.44420000  1.0
  H  H29  1  0.04900000  0.37770000  0.44420000  1.0
  H  H30  1  0.32870000  0.95100000  0.44420000  1.0
  H  H31  1  0.37770000  0.32870000  0.94420000  1.0
  H  H32  1  0.95100000  0.62230000  0.94420000  1.0
  H  H33  1  0.67130000  0.04900000  0.94420000  1.0
  H  H34  1  0.13645000  0.27290000  0.15040000  1.0
  H  H35  1  0.72710000  0.86355000  0.15040000  1.0
  H  H36  1  0.13645000  0.86355000  0.15040000  1.0
  H  H37  1  0.86355000  0.72710000  0.65040000  1.0
  H  H38  1  0.27290000  0.13645000  0.65040000  1.0
  H  H39  1  0.86355000  0.13645000  0.65040000  1.0
  H  H40  1  0.27290000  0.13645000  0.84960000  1.0
  H  H41  1  0.86355000  0.72710000  0.84960000  1.0
  H  H42  1  0.86355000  0.13645000  0.84960000  1.0
  H  H43  1  0.72710000  0.86355000  0.34960000  1.0
  H  H44  1  0.13645000  0.27290000  0.34960000  1.0
  H  H45  1  0.13645000  0.86355000  0.34960000  1.0
  C  C46  1  0.39660000  0.42540000  0.46610000  1.0
  C  C47  1  0.57460000  0.97120000  0.46610000  1.0
  C  C48  1  0.02880000  0.60340000  0.46610000  1.0
  C  C49  1  0.60340000  0.57460000  0.96610000  1.0
  C  C50  1  0.42540000  0.02880000  0.96610000  1.0
  C  C51  1  0.97120000  0.39660000  0.96610000  1.0
  C  C52  1  0.42540000  0.39660000  0.53390000  1.0
  C  C53  1  0.97120000  0.57460000  0.53390000  1.0
  C  C54  1  0.60340000  0.02880000  0.53390000  1.0
  C  C55  1  0.57460000  0.60340000  0.03390000  1.0
  C  C56  1  0.02880000  0.42540000  0.03390000  1.0
  C  C57  1  0.39660000  0.97120000  0.03390000  1.0
  C  C58  1  0.60340000  0.57460000  0.53390000  1.0
  C  C59  1  0.42540000  0.02880000  0.53390000  1.0
  C  C60  1  0.97120000  0.39660000  0.53390000  1.0
  C  C61  1  0.39660000  0.42540000  0.03390000  1.0
  C  C62  1  0.57460000  0.97120000  0.03390000  1.0
  C  C63  1  0.02880000  0.60340000  0.03390000  1.0
  C  C64  1  0.57460000  0.60340000  0.46610000  1.0
  C  C65  1  0.02880000  0.42540000  0.46610000  1.0
  C  C66  1  0.39660000  0.97120000  0.46610000  1.0
  C  C67  1  0.42540000  0.39660000  0.96610000  1.0
  C  C68  1  0.97120000  0.57460000  0.96610000  1.0
  C  C69  1  0.60340000  0.02880000  0.96610000  1.0
  C  C70  1  0.12450000  0.24900000  0.19800000  1.0
  C  C71  1  0.75100000  0.87550000  0.19800000  1.0
  C  C72  1  0.12450000  0.87550000  0.19800000  1.0
  C  C73  1  0.87550000  0.75100000  0.69800000  1.0
  C  C74  1  0.24900000  0.12450000  0.69800000  1.0
  C  C75  1  0.87550000  0.12450000  0.69800000  1.0
  C  C76  1  0.24900000  0.12450000  0.80200000  1.0
  C  C77  1  0.87550000  0.75100000  0.80200000  1.0
  C  C78  1  0.87550000  0.12450000  0.80200000  1.0
  C  C79  1  0.75100000  0.87550000  0.30200000  1.0
  C  C80  1  0.12450000  0.24900000  0.30200000  1.0
  C  C81  1  0.12450000  0.87550000  0.30200000  1.0
  C  C82  1  0.44140000  0.55860000  0.36240000  1.0
  C  C83  1  0.47270000  0.52730000  0.43280000  1.0
  C  C84  1  0.44140000  0.88280000  0.36240000  1.0
  C  C85  1  0.47270000  0.94540000  0.43280000  1.0
  C  C86  1  0.11720000  0.55860000  0.36240000  1.0
  C  C87  1  0.05460000  0.52730000  0.43280000  1.0
  C  C88  1  0.55860000  0.44140000  0.86240000  1.0
  C  C89  1  0.52730000  0.47270000  0.93280000  1.0
  C  C90  1  0.55860000  0.11720000  0.86240000  1.0
  C  C91  1  0.52730000  0.05460000  0.93280000  1.0
  C  C92  1  0.88280000  0.44140000  0.86240000  1.0
  C  C93  1  0.94540000  0.47270000  0.93280000  1.0
  C  C94  1  0.55860000  0.44140000  0.63760000  1.0
  C  C95  1  0.52730000  0.47270000  0.56720000  1.0
  C  C96  1  0.88280000  0.44140000  0.63760000  1.0
  C  C97  1  0.94540000  0.47270000  0.56720000  1.0
  C  C98  1  0.55860000  0.11720000  0.63760000  1.0
  C  C99  1  0.52730000  0.05460000  0.56720000  1.0
  C  C100  1  0.44140000  0.55860000  0.13760000  1.0
  C  C101  1  0.47270000  0.52730000  0.06720000  1.0
  C  C102  1  0.11720000  0.55860000  0.13760000  1.0
  C  C103  1  0.05460000  0.52730000  0.06720000  1.0
  C  C104  1  0.44140000  0.88280000  0.13760000  1.0
  C  C105  1  0.47270000  0.94540000  0.06720000  1.0
  N  N106  1  0.15830000  0.31660000  0.25000000  1.0
  N  N107  1  0.68340000  0.84170000  0.25000000  1.0
  N  N108  1  0.15830000  0.84170000  0.25000000  1.0
  N  N109  1  0.84170000  0.68340000  0.75000000  1.0
  N  N110  1  0.31660000  0.15830000  0.75000000  1.0
  N  N111  1  0.84170000  0.15830000  0.75000000  1.0
  N  N112  1  0.07400000  0.14800000  0.21330000  1.0
  N  N113  1  0.85200000  0.92600000  0.21330000  1.0
  N  N114  1  0.07400000  0.92600000  0.21330000  1.0
  N  N115  1  0.92600000  0.85200000  0.71330000  1.0
  N  N116  1  0.14800000  0.07400000  0.71330000  1.0
  N  N117  1  0.92600000  0.07400000  0.71330000  1.0
  N  N118  1  0.14800000  0.07400000  0.78670000  1.0
  N  N119  1  0.92600000  0.85200000  0.78670000  1.0
  N  N120  1  0.92600000  0.07400000  0.78670000  1.0
  N  N121  1  0.85200000  0.92600000  0.28670000  1.0
  N  N122  1  0.07400000  0.14800000  0.28670000  1.0
  N  N123  1  0.07400000  0.92600000  0.28670000  1.0
  O  O124  1  0.34890000  0.48790000  0.33630000  1.0
  O  O125  1  0.51210000  0.86100000  0.33630000  1.0
  O  O126  1  0.13900000  0.65110000  0.33630000  1.0
  O  O127  1  0.65110000  0.51210000  0.83630000  1.0
  O  O128  1  0.48790000  0.13900000  0.83630000  1.0
  O  O129  1  0.86100000  0.34890000  0.83630000  1.0
  O  O130  1  0.48790000  0.34890000  0.66370000  1.0
  O  O131  1  0.86100000  0.51210000  0.66370000  1.0
  O  O132  1  0.65110000  0.13900000  0.66370000  1.0
  O  O133  1  0.51210000  0.65110000  0.16370000  1.0
  O  O134  1  0.13900000  0.48790000  0.16370000  1.0
  O  O135  1  0.34890000  0.86100000  0.16370000  1.0
  O  O136  1  0.65110000  0.51210000  0.66370000  1.0
  O  O137  1  0.48790000  0.13900000  0.66370000  1.0
  O  O138  1  0.86100000  0.34890000  0.66370000  1.0
  O  O139  1  0.34890000  0.48790000  0.16370000  1.0
  O  O140  1  0.51210000  0.86100000  0.16370000  1.0
  O  O141  1  0.13900000  0.65110000  0.16370000  1.0
  O  O142  1  0.51210000  0.65110000  0.33630000  1.0
  O  O143  1  0.13900000  0.48790000  0.33630000  1.0
  O  O144  1  0.34890000  0.86100000  0.33630000  1.0
  O  O145  1  0.48790000  0.34890000  0.83630000  1.0
  O  O146  1  0.86100000  0.51210000  0.83630000  1.0
  O  O147  1  0.65110000  0.13900000  0.83630000  1.0
  O  O148  1  0.33333333  0.66666667  0.25000000  1.0
  O  O149  1  0.66666667  0.33333333  0.75000000  1.0
