# generated using pymatgen
data_Ga3CoP4H26C8(N3O8)2
_symmetry_space_group_name_H-M   'P 1'
_cell_length_a   23.74000000
_cell_length_b   23.74000000
_cell_length_c   13.48510000
_cell_angle_alpha   90.00000000
_cell_angle_beta   90.00000000
_cell_angle_gamma   120.00000000
_symmetry_Int_Tables_number   1
_chemical_formula_structural   Ga3CoP4H26C8(N3O8)2
_chemical_formula_sum   'Ga27 Co9 P36 H234 C72 N54 O144'
_cell_volume   6581.82350502
_cell_formula_units_Z   9
loop_
 _symmetry_equiv_pos_site_id
 _symmetry_equiv_pos_as_xyz
  1  'x, y, z'
loop_
 _atom_site_type_symbol
 _atom_site_label
 _atom_site_symmetry_multiplicity
 _atom_site_fract_x
 _atom_site_fract_y
 _atom_site_fract_z
 _atom_site_occupancy
  Ga  Ga0  1  0.34972000  0.24283000  0.91544000  1.0
  Ga  Ga1  1  0.30628000  0.24025000  0.21335000  1.0
  Ga  Ga2  1  0.01639000  0.57616000  0.24877000  1.0
  Ga  Ga3  1  0.97294000  0.57359000  0.54669000  1.0
  Ga  Ga4  1  0.68305000  0.90950000  0.58211000  1.0
  Ga  Ga5  1  0.63961000  0.90692000  0.88002000  1.0
  Ga  Ga6  1  0.75717000  0.10689000  0.91544000  1.0
  Ga  Ga7  1  0.75975000  0.06602000  0.21335000  1.0
  Ga  Ga8  1  0.42384000  0.44022000  0.24877000  1.0
  Ga  Ga9  1  0.42641000  0.39936000  0.54669000  1.0
  Ga  Ga10  1  0.09050000  0.77356000  0.58211000  1.0
  Ga  Ga11  1  0.09308000  0.73269000  0.88002000  1.0
  Ga  Ga12  1  0.89311000  0.65028000  0.91544000  1.0
  Ga  Ga13  1  0.93398000  0.69372000  0.21335000  1.0
  Ga  Ga14  1  0.55978000  0.98361000  0.24877000  1.0
  Ga  Ga15  1  0.60064000  0.02706000  0.54669000  1.0
  Ga  Ga16  1  0.22644000  0.31695000  0.58211000  1.0
  Ga  Ga17  1  0.26731000  0.36039000  0.88002000  1.0
  Ga  Ga18  1  0.65028000  0.75717000  0.08456000  1.0
  Ga  Ga19  1  0.31695000  0.09050000  0.41789000  1.0
  Ga  Ga20  1  0.98361000  0.42384000  0.75123000  1.0
  Ga  Ga21  1  0.24283000  0.89311000  0.08456000  1.0
  Ga  Ga22  1  0.90950000  0.22644000  0.41789000  1.0
  Ga  Ga23  1  0.57616000  0.55978000  0.75123000  1.0
  Ga  Ga24  1  0.10689000  0.34972000  0.08456000  1.0
  Ga  Ga25  1  0.77356000  0.68305000  0.41789000  1.0
  Ga  Ga26  1  0.44022000  0.01639000  0.75123000  1.0
  Co  Co27  1  0.36039000  0.09308000  0.11998000  1.0
  Co  Co28  1  0.02706000  0.42641000  0.45331000  1.0
  Co  Co29  1  0.69372000  0.75975000  0.78665000  1.0
  Co  Co30  1  0.90692000  0.26731000  0.11998000  1.0
  Co  Co31  1  0.57359000  0.60064000  0.45331000  1.0
  Co  Co32  1  0.24025000  0.93398000  0.78665000  1.0
  Co  Co33  1  0.73269000  0.63961000  0.11998000  1.0
  Co  Co34  1  0.39936000  0.97294000  0.45331000  1.0
  Co  Co35  1  0.06602000  0.30628000  0.78665000  1.0
  P  P36  1  0.41876000  0.23621000  0.11950000  1.0
  P  P37  1  0.32680000  0.98697000  0.27725000  1.0
  P  P38  1  0.08543000  0.56954000  0.45283000  1.0
  P  P39  1  0.99347000  0.32030000  0.61058000  1.0
  P  P40  1  0.75209000  0.90288000  0.78617000  1.0
  P  P41  1  0.66013000  0.65364000  0.94392000  1.0
  P  P42  1  0.76379000  0.18255000  0.11950000  1.0
  P  P43  1  0.01303000  0.33983000  0.27725000  1.0
  P  P44  1  0.43046000  0.51588000  0.45283000  1.0
  P  P45  1  0.67970000  0.67316000  0.61058000  1.0
  P  P46  1  0.09712000  0.84922000  0.78617000  1.0
  P  P47  1  0.34636000  0.00650000  0.94392000  1.0
  P  P48  1  0.81745000  0.58124000  0.11950000  1.0
  P  P49  1  0.66017000  0.67320000  0.27725000  1.0
  P  P50  1  0.48412000  0.91457000  0.45283000  1.0
  P  P51  1  0.32684000  0.00653000  0.61058000  1.0
  P  P52  1  0.15078000  0.24791000  0.78617000  1.0
  P  P53  1  0.99350000  0.33987000  0.94392000  1.0
  P  P54  1  0.58124000  0.76379000  0.88050000  1.0
  P  P55  1  0.67320000  0.01303000  0.72275000  1.0
  P  P56  1  0.24791000  0.09712000  0.21383000  1.0
  P  P57  1  0.33987000  0.34636000  0.05608000  1.0
  P  P58  1  0.91457000  0.43046000  0.54717000  1.0
  P  P59  1  0.00653000  0.67970000  0.38942000  1.0
  P  P60  1  0.23621000  0.81745000  0.88050000  1.0
  P  P61  1  0.98697000  0.66017000  0.72275000  1.0
  P  P62  1  0.90288000  0.15078000  0.21383000  1.0
  P  P63  1  0.65364000  0.99350000  0.05608000  1.0
  P  P64  1  0.56954000  0.48412000  0.54717000  1.0
  P  P65  1  0.32030000  0.32684000  0.38942000  1.0
  P  P66  1  0.18255000  0.41876000  0.88050000  1.0
  P  P67  1  0.33983000  0.32680000  0.72275000  1.0
  P  P68  1  0.84922000  0.75209000  0.21383000  1.0
  P  P69  1  0.00650000  0.66013000  0.05608000  1.0
  P  P70  1  0.51588000  0.08543000  0.54717000  1.0
  P  P71  1  0.67316000  0.99347000  0.38942000  1.0
  H  H72  1  0.45110000  0.29860000  0.81330000  1.0
  H  H73  1  0.47340000  0.29080000  0.92170000  1.0
  H  H74  1  0.33280000  0.12730000  0.89550000  1.0
  H  H75  1  0.24610000  0.19100000  0.00770000  1.0
  H  H76  1  0.22990000  0.20340000  0.90830000  1.0
  H  H77  1  0.45370000  0.19330000  0.89050000  1.0
  H  H78  1  0.47320000  0.23490000  0.78580000  1.0
  H  H79  1  0.38280000  0.19860000  0.72430000  1.0
  H  H80  1  0.37750000  0.12860000  0.75630000  1.0
  H  H81  1  0.26080000  0.14780000  0.75720000  1.0
  H  H82  1  0.24730000  0.07720000  0.80450000  1.0
  H  H83  1  0.23070000  0.10010000  0.95700000  1.0
  H  H84  1  0.17580000  0.10010000  0.86790000  1.0
  H  H85  1  0.11777000  0.63193000  0.14663000  1.0
  H  H86  1  0.14007000  0.62413000  0.25503000  1.0
  H  H87  1  0.99947000  0.46063000  0.22883000  1.0
  H  H88  1  0.91277000  0.52433000  0.34103000  1.0
  H  H89  1  0.89657000  0.53673000  0.24163000  1.0
  H  H90  1  0.12037000  0.52663000  0.22383000  1.0
  H  H91  1  0.13987000  0.56823000  0.11913000  1.0
  H  H92  1  0.04947000  0.53193000  0.05763000  1.0
  H  H93  1  0.04417000  0.46193000  0.08963000  1.0
  H  H94  1  0.92747000  0.48113000  0.09053000  1.0
  H  H95  1  0.91397000  0.41053000  0.13783000  1.0
  H  H96  1  0.89737000  0.43343000  0.29033000  1.0
  H  H97  1  0.84247000  0.43343000  0.20123000  1.0
  H  H98  1  0.78443000  0.96527000  0.47997000  1.0
  H  H99  1  0.80673000  0.95747000  0.58837000  1.0
  H  H100  1  0.66613000  0.79397000  0.56217000  1.0
  H  H101  1  0.57943000  0.85767000  0.67437000  1.0
  H  H102  1  0.56323000  0.87007000  0.57497000  1.0
  H  H103  1  0.78703000  0.85997000  0.55717000  1.0
  H  H104  1  0.80653000  0.90157000  0.45247000  1.0
  H  H105  1  0.71613000  0.86527000  0.39097000  1.0
  H  H106  1  0.71083000  0.79527000  0.42297000  1.0
  H  H107  1  0.59413000  0.81447000  0.42387000  1.0
  H  H108  1  0.58063000  0.74387000  0.47117000  1.0
  H  H109  1  0.56403000  0.76677000  0.62367000  1.0
  H  H110  1  0.50913000  0.76677000  0.53457000  1.0
  H  H111  1  0.70140000  0.15250000  0.81330000  1.0
  H  H112  1  0.70920000  0.18260000  0.92170000  1.0
  H  H113  1  0.87270000  0.20550000  0.89550000  1.0
  H  H114  1  0.80900000  0.05510000  0.00770000  1.0
  H  H115  1  0.79660000  0.02650000  0.90830000  1.0
  H  H116  1  0.80670000  0.26040000  0.89050000  1.0
  H  H117  1  0.76510000  0.23830000  0.78580000  1.0
  H  H118  1  0.80140000  0.18420000  0.72430000  1.0
  H  H119  1  0.87140000  0.24890000  0.75630000  1.0
  H  H120  1  0.85220000  0.11300000  0.75720000  1.0
  H  H121  1  0.92280000  0.17010000  0.80450000  1.0
  H  H122  1  0.89990000  0.13060000  0.95700000  1.0
  H  H123  1  0.89990000  0.07570000  0.86790000  1.0
  H  H124  1  0.36807000  0.48583000  0.14663000  1.0
  H  H125  1  0.37587000  0.51593000  0.25503000  1.0
  H  H126  1  0.53937000  0.53883000  0.22883000  1.0
  H  H127  1  0.47567000  0.38843000  0.34103000  1.0
  H  H128  1  0.46327000  0.35983000  0.24163000  1.0
  H  H129  1  0.47337000  0.59373000  0.22383000  1.0
  H  H130  1  0.43177000  0.57163000  0.11913000  1.0
  H  H131  1  0.46807000  0.51753000  0.05763000  1.0
  H  H132  1  0.53807000  0.58223000  0.08963000  1.0
  H  H133  1  0.51887000  0.44633000  0.09053000  1.0
  H  H134  1  0.58947000  0.50343000  0.13783000  1.0
  H  H135  1  0.56657000  0.46393000  0.29033000  1.0
  H  H136  1  0.56657000  0.40903000  0.20123000  1.0
  H  H137  1  0.03473000  0.81917000  0.47997000  1.0
  H  H138  1  0.04253000  0.84927000  0.58837000  1.0
  H  H139  1  0.20603000  0.87217000  0.56217000  1.0
  H  H140  1  0.14233000  0.72177000  0.67437000  1.0
  H  H141  1  0.12993000  0.69317000  0.57497000  1.0
  H  H142  1  0.14003000  0.92707000  0.55717000  1.0
  H  H143  1  0.09843000  0.90497000  0.45247000  1.0
  H  H144  1  0.13473000  0.85087000  0.39097000  1.0
  H  H145  1  0.20473000  0.91557000  0.42297000  1.0
  H  H146  1  0.18553000  0.77967000  0.42387000  1.0
  H  H147  1  0.25613000  0.83677000  0.47117000  1.0
  H  H148  1  0.23323000  0.79727000  0.62367000  1.0
  H  H149  1  0.23323000  0.74237000  0.53457000  1.0
  H  H150  1  0.84750000  0.54890000  0.81330000  1.0
  H  H151  1  0.81740000  0.52660000  0.92170000  1.0
  H  H152  1  0.79450000  0.66720000  0.89550000  1.0
  H  H153  1  0.94490000  0.75390000  0.00770000  1.0
  H  H154  1  0.97350000  0.77010000  0.90830000  1.0
  H  H155  1  0.73960000  0.54630000  0.89050000  1.0
  H  H156  1  0.76170000  0.52680000  0.78580000  1.0
  H  H157  1  0.81580000  0.61720000  0.72430000  1.0
  H  H158  1  0.75110000  0.62250000  0.75630000  1.0
  H  H159  1  0.88700000  0.73920000  0.75720000  1.0
  H  H160  1  0.82990000  0.75270000  0.80450000  1.0
  H  H161  1  0.86940000  0.76930000  0.95700000  1.0
  H  H162  1  0.92430000  0.82420000  0.86790000  1.0
  H  H163  1  0.51417000  0.88223000  0.14663000  1.0
  H  H164  1  0.48407000  0.85993000  0.25503000  1.0
  H  H165  1  0.46117000  0.00053000  0.22883000  1.0
  H  H166  1  0.61157000  0.08723000  0.34103000  1.0
  H  H167  1  0.64017000  0.10343000  0.24163000  1.0
  H  H168  1  0.40627000  0.87963000  0.22383000  1.0
  H  H169  1  0.42837000  0.86013000  0.11913000  1.0
  H  H170  1  0.48247000  0.95053000  0.05763000  1.0
  H  H171  1  0.41777000  0.95583000  0.08963000  1.0
  H  H172  1  0.55367000  0.07253000  0.09053000  1.0
  H  H173  1  0.49657000  0.08603000  0.13783000  1.0
  H  H174  1  0.53607000  0.10263000  0.29033000  1.0
  H  H175  1  0.59097000  0.15753000  0.20123000  1.0
  H  H176  1  0.18083000  0.21557000  0.47997000  1.0
  H  H177  1  0.15073000  0.19327000  0.58837000  1.0
  H  H178  1  0.12783000  0.33387000  0.56217000  1.0
  H  H179  1  0.27823000  0.42057000  0.67437000  1.0
  H  H180  1  0.30683000  0.43677000  0.57497000  1.0
  H  H181  1  0.07293000  0.21297000  0.55717000  1.0
  H  H182  1  0.09503000  0.19347000  0.45247000  1.0
  H  H183  1  0.14913000  0.28387000  0.39097000  1.0
  H  H184  1  0.08443000  0.28917000  0.42297000  1.0
  H  H185  1  0.22033000  0.40587000  0.42387000  1.0
  H  H186  1  0.16323000  0.41937000  0.47117000  1.0
  H  H187  1  0.20273000  0.43597000  0.62367000  1.0
  H  H188  1  0.25763000  0.49087000  0.53457000  1.0
  H  H189  1  0.54890000  0.70140000  0.18670000  1.0
  H  H190  1  0.52660000  0.70920000  0.07830000  1.0
  H  H191  1  0.66720000  0.87270000  0.10450000  1.0
  H  H192  1  0.75390000  0.80900000  0.99230000  1.0
  H  H193  1  0.77010000  0.79660000  0.09170000  1.0
  H  H194  1  0.54630000  0.80670000  0.10950000  1.0
  H  H195  1  0.52680000  0.76510000  0.21420000  1.0
  H  H196  1  0.61720000  0.80140000  0.27570000  1.0
  H  H197  1  0.62250000  0.87140000  0.24370000  1.0
  H  H198  1  0.73920000  0.85220000  0.24280000  1.0
  H  H199  1  0.75270000  0.92280000  0.19550000  1.0
  H  H200  1  0.76930000  0.89990000  0.04300000  1.0
  H  H201  1  0.82420000  0.89990000  0.13210000  1.0
  H  H202  1  0.21557000  0.03473000  0.52003000  1.0
  H  H203  1  0.19327000  0.04253000  0.41163000  1.0
  H  H204  1  0.33387000  0.20603000  0.43783000  1.0
  H  H205  1  0.42057000  0.14233000  0.32563000  1.0
  H  H206  1  0.43677000  0.12993000  0.42503000  1.0
  H  H207  1  0.21297000  0.14003000  0.44283000  1.0
  H  H208  1  0.19347000  0.09843000  0.54753000  1.0
  H  H209  1  0.28387000  0.13473000  0.60903000  1.0
  H  H210  1  0.28917000  0.20473000  0.57703000  1.0
  H  H211  1  0.40587000  0.18553000  0.57613000  1.0
  H  H212  1  0.41937000  0.25613000  0.52883000  1.0
  H  H213  1  0.43597000  0.23323000  0.37633000  1.0
  H  H214  1  0.49087000  0.23323000  0.46543000  1.0
  H  H215  1  0.88223000  0.36807000  0.85337000  1.0
  H  H216  1  0.85993000  0.37587000  0.74497000  1.0
  H  H217  1  0.00053000  0.53937000  0.77117000  1.0
  H  H218  1  0.08723000  0.47567000  0.65897000  1.0
  H  H219  1  0.10343000  0.46327000  0.75837000  1.0
  H  H220  1  0.87963000  0.47337000  0.77617000  1.0
  H  H221  1  0.86013000  0.43177000  0.88087000  1.0
  H  H222  1  0.95053000  0.46807000  0.94237000  1.0
  H  H223  1  0.95583000  0.53807000  0.91037000  1.0
  H  H224  1  0.07253000  0.51887000  0.90947000  1.0
  H  H225  1  0.08603000  0.58947000  0.86217000  1.0
  H  H226  1  0.10263000  0.56657000  0.70967000  1.0
  H  H227  1  0.15753000  0.56657000  0.79877000  1.0
  H  H228  1  0.29860000  0.84750000  0.18670000  1.0
  H  H229  1  0.29080000  0.81740000  0.07830000  1.0
  H  H230  1  0.12730000  0.79450000  0.10450000  1.0
  H  H231  1  0.19100000  0.94490000  0.99230000  1.0
  H  H232  1  0.20340000  0.97350000  0.09170000  1.0
  H  H233  1  0.19330000  0.73960000  0.10950000  1.0
  H  H234  1  0.23490000  0.76170000  0.21420000  1.0
  H  H235  1  0.19860000  0.81580000  0.27570000  1.0
  H  H236  1  0.12860000  0.75110000  0.24370000  1.0
  H  H237  1  0.14780000  0.88700000  0.24280000  1.0
  H  H238  1  0.07720000  0.82990000  0.19550000  1.0
  H  H239  1  0.10010000  0.86940000  0.04300000  1.0
  H  H240  1  0.10010000  0.92430000  0.13210000  1.0
  H  H241  1  0.96527000  0.18083000  0.52003000  1.0
  H  H242  1  0.95747000  0.15073000  0.41163000  1.0
  H  H243  1  0.79397000  0.12783000  0.43783000  1.0
  H  H244  1  0.85767000  0.27823000  0.32563000  1.0
  H  H245  1  0.87007000  0.30683000  0.42503000  1.0
  H  H246  1  0.85997000  0.07293000  0.44283000  1.0
  H  H247  1  0.90157000  0.09503000  0.54753000  1.0
  H  H248  1  0.86527000  0.14913000  0.60903000  1.0
  H  H249  1  0.79527000  0.08443000  0.57703000  1.0
  H  H250  1  0.81447000  0.22033000  0.57613000  1.0
  H  H251  1  0.74387000  0.16323000  0.52883000  1.0
  H  H252  1  0.76677000  0.20273000  0.37633000  1.0
  H  H253  1  0.76677000  0.25763000  0.46543000  1.0
  H  H254  1  0.63193000  0.51417000  0.85337000  1.0
  H  H255  1  0.62413000  0.48407000  0.74497000  1.0
  H  H256  1  0.46063000  0.46117000  0.77117000  1.0
  H  H257  1  0.52433000  0.61157000  0.65897000  1.0
  H  H258  1  0.53673000  0.64017000  0.75837000  1.0
  H  H259  1  0.52663000  0.40627000  0.77617000  1.0
  H  H260  1  0.56823000  0.42837000  0.88087000  1.0
  H  H261  1  0.53193000  0.48247000  0.94237000  1.0
  H  H262  1  0.46193000  0.41777000  0.91037000  1.0
  H  H263  1  0.48113000  0.55367000  0.90947000  1.0
  H  H264  1  0.41053000  0.49657000  0.86217000  1.0
  H  H265  1  0.43343000  0.53607000  0.70967000  1.0
  H  H266  1  0.43343000  0.59097000  0.79877000  1.0
  H  H267  1  0.15250000  0.45110000  0.18670000  1.0
  H  H268  1  0.18260000  0.47340000  0.07830000  1.0
  H  H269  1  0.20550000  0.33280000  0.10450000  1.0
  H  H270  1  0.05510000  0.24610000  0.99230000  1.0
  H  H271  1  0.02650000  0.22990000  0.09170000  1.0
  H  H272  1  0.26040000  0.45370000  0.10950000  1.0
  H  H273  1  0.23830000  0.47320000  0.21420000  1.0
  H  H274  1  0.18420000  0.38280000  0.27570000  1.0
  H  H275  1  0.24890000  0.37750000  0.24370000  1.0
  H  H276  1  0.11300000  0.26080000  0.24280000  1.0
  H  H277  1  0.17010000  0.24730000  0.19550000  1.0
  H  H278  1  0.13060000  0.23070000  0.04300000  1.0
  H  H279  1  0.07570000  0.17580000  0.13210000  1.0
  H  H280  1  0.81917000  0.78443000  0.52003000  1.0
  H  H281  1  0.84927000  0.80673000  0.41163000  1.0
  H  H282  1  0.87217000  0.66613000  0.43783000  1.0
  H  H283  1  0.72177000  0.57943000  0.32563000  1.0
  H  H284  1  0.69317000  0.56323000  0.42503000  1.0
  H  H285  1  0.92707000  0.78703000  0.44283000  1.0
  H  H286  1  0.90497000  0.80653000  0.54753000  1.0
  H  H287  1  0.85087000  0.71613000  0.60903000  1.0
  H  H288  1  0.91557000  0.71083000  0.57703000  1.0
  H  H289  1  0.77967000  0.59413000  0.57613000  1.0
  H  H290  1  0.83677000  0.58063000  0.52883000  1.0
  H  H291  1  0.79727000  0.56403000  0.37633000  1.0
  H  H292  1  0.74237000  0.50913000  0.46543000  1.0
  H  H293  1  0.48583000  0.11777000  0.85337000  1.0
  H  H294  1  0.51593000  0.14007000  0.74497000  1.0
  H  H295  1  0.53883000  0.99947000  0.77117000  1.0
  H  H296  1  0.38843000  0.91277000  0.65897000  1.0
  H  H297  1  0.35983000  0.89657000  0.75837000  1.0
  H  H298  1  0.59373000  0.12037000  0.77617000  1.0
  H  H299  1  0.57163000  0.13987000  0.88087000  1.0
  H  H300  1  0.51753000  0.04947000  0.94237000  1.0
  H  H301  1  0.58223000  0.04417000  0.91037000  1.0
  H  H302  1  0.44633000  0.92747000  0.90947000  1.0
  H  H303  1  0.50343000  0.91397000  0.86217000  1.0
  H  H304  1  0.46393000  0.89737000  0.70967000  1.0
  H  H305  1  0.40903000  0.84247000  0.79877000  1.0
  C  C306  1  0.44730000  0.21860000  0.83110000  1.0
  C  C307  1  0.38490000  0.17300000  0.77970000  1.0
  C  C308  1  0.26500000  0.12300000  0.81680000  1.0
  C  C309  1  0.22370000  0.12140000  0.90290000  1.0
  C  C310  1  0.11397000  0.55193000  0.16443000  1.0
  C  C311  1  0.05157000  0.50633000  0.11303000  1.0
  C  C312  1  0.93167000  0.45633000  0.15013000  1.0
  C  C313  1  0.89037000  0.45473000  0.23623000  1.0
  C  C314  1  0.78063000  0.88527000  0.49777000  1.0
  C  C315  1  0.71823000  0.83967000  0.44637000  1.0
  C  C316  1  0.59833000  0.78967000  0.48347000  1.0
  C  C317  1  0.55703000  0.78807000  0.56957000  1.0
  C  C318  1  0.78140000  0.22870000  0.83110000  1.0
  C  C319  1  0.82700000  0.21190000  0.77970000  1.0
  C  C320  1  0.87700000  0.14200000  0.81680000  1.0
  C  C321  1  0.87860000  0.10230000  0.90290000  1.0
  C  C322  1  0.44807000  0.56203000  0.16443000  1.0
  C  C323  1  0.49367000  0.54523000  0.11303000  1.0
  C  C324  1  0.54367000  0.47533000  0.15013000  1.0
  C  C325  1  0.54527000  0.43563000  0.23623000  1.0
  C  C326  1  0.11473000  0.89537000  0.49777000  1.0
  C  C327  1  0.16033000  0.87857000  0.44637000  1.0
  C  C328  1  0.21033000  0.80867000  0.48347000  1.0
  C  C329  1  0.21193000  0.76897000  0.56957000  1.0
  C  C330  1  0.77130000  0.55270000  0.83110000  1.0
  C  C331  1  0.78810000  0.61510000  0.77970000  1.0
  C  C332  1  0.85800000  0.73500000  0.81680000  1.0
  C  C333  1  0.89770000  0.77630000  0.90290000  1.0
  C  C334  1  0.43797000  0.88603000  0.16443000  1.0
  C  C335  1  0.45477000  0.94843000  0.11303000  1.0
  C  C336  1  0.52467000  0.06833000  0.15013000  1.0
  C  C337  1  0.56437000  0.10963000  0.23623000  1.0
  C  C338  1  0.10463000  0.21937000  0.49777000  1.0
  C  C339  1  0.12143000  0.28177000  0.44637000  1.0
  C  C340  1  0.19133000  0.40167000  0.48347000  1.0
  C  C341  1  0.23103000  0.44297000  0.56957000  1.0
  C  C342  1  0.55270000  0.78140000  0.16890000  1.0
  C  C343  1  0.61510000  0.82700000  0.22030000  1.0
  C  C344  1  0.73500000  0.87700000  0.18320000  1.0
  C  C345  1  0.77630000  0.87860000  0.09710000  1.0
  C  C346  1  0.21937000  0.11473000  0.50223000  1.0
  C  C347  1  0.28177000  0.16033000  0.55363000  1.0
  C  C348  1  0.40167000  0.21033000  0.51653000  1.0
  C  C349  1  0.44297000  0.21193000  0.43043000  1.0
  C  C350  1  0.88603000  0.44807000  0.83557000  1.0
  C  C351  1  0.94843000  0.49367000  0.88697000  1.0
  C  C352  1  0.06833000  0.54367000  0.84987000  1.0
  C  C353  1  0.10963000  0.54527000  0.76377000  1.0
  C  C354  1  0.21860000  0.77130000  0.16890000  1.0
  C  C355  1  0.17300000  0.78810000  0.22030000  1.0
  C  C356  1  0.12300000  0.85800000  0.18320000  1.0
  C  C357  1  0.12140000  0.89770000  0.09710000  1.0
  C  C358  1  0.88527000  0.10463000  0.50223000  1.0
  C  C359  1  0.83967000  0.12143000  0.55363000  1.0
  C  C360  1  0.78967000  0.19133000  0.51653000  1.0
  C  C361  1  0.78807000  0.23103000  0.43043000  1.0
  C  C362  1  0.55193000  0.43797000  0.83557000  1.0
  C  C363  1  0.50633000  0.45477000  0.88697000  1.0
  C  C364  1  0.45633000  0.52467000  0.84987000  1.0
  C  C365  1  0.45473000  0.56437000  0.76377000  1.0
  C  C366  1  0.22870000  0.44730000  0.16890000  1.0
  C  C367  1  0.21190000  0.38490000  0.22030000  1.0
  C  C368  1  0.14200000  0.26500000  0.18320000  1.0
  C  C369  1  0.10230000  0.22370000  0.09710000  1.0
  C  C370  1  0.89537000  0.78063000  0.50223000  1.0
  C  C371  1  0.87857000  0.71823000  0.55363000  1.0
  C  C372  1  0.80867000  0.59833000  0.51653000  1.0
  C  C373  1  0.76897000  0.55703000  0.43043000  1.0
  C  C374  1  0.56203000  0.11397000  0.83557000  1.0
  C  C375  1  0.54523000  0.05157000  0.88697000  1.0
  C  C376  1  0.47533000  0.93167000  0.84987000  1.0
  C  C377  1  0.43563000  0.89037000  0.76377000  1.0
  N  N378  1  0.44436000  0.27577000  0.86930000  1.0
  N  N379  1  0.33240000  0.15663000  0.85130000  1.0
  N  N380  1  0.25099000  0.18888000  0.94120000  1.0
  N  N381  1  0.11103000  0.60910000  0.20263000  1.0
  N  N382  1  0.99907000  0.48996000  0.18463000  1.0
  N  N383  1  0.91766000  0.52221000  0.27453000  1.0
  N  N384  1  0.77769000  0.94244000  0.53597000  1.0
  N  N385  1  0.66573000  0.82330000  0.51797000  1.0
  N  N386  1  0.58432000  0.85555000  0.60787000  1.0
  N  N387  1  0.72423000  0.16859000  0.86930000  1.0
  N  N388  1  0.84337000  0.17577000  0.85130000  1.0
  N  N389  1  0.81112000  0.06211000  0.94120000  1.0
  N  N390  1  0.39090000  0.50192000  0.20263000  1.0
  N  N391  1  0.51004000  0.50910000  0.18463000  1.0
  N  N392  1  0.47779000  0.39544000  0.27453000  1.0
  N  N393  1  0.05756000  0.83526000  0.53597000  1.0
  N  N394  1  0.17670000  0.84244000  0.51797000  1.0
  N  N395  1  0.14445000  0.72878000  0.60787000  1.0
  N  N396  1  0.83141000  0.55564000  0.86930000  1.0
  N  N397  1  0.82423000  0.66760000  0.85130000  1.0
  N  N398  1  0.93789000  0.74901000  0.94120000  1.0
  N  N399  1  0.49808000  0.88897000  0.20263000  1.0
  N  N400  1  0.49090000  0.00093000  0.18463000  1.0
  N  N401  1  0.60456000  0.08234000  0.27453000  1.0
  N  N402  1  0.16474000  0.22231000  0.53597000  1.0
  N  N403  1  0.15756000  0.33427000  0.51797000  1.0
  N  N404  1  0.27122000  0.41568000  0.60787000  1.0
  N  N405  1  0.55564000  0.72423000  0.13070000  1.0
  N  N406  1  0.66760000  0.84337000  0.14870000  1.0
  N  N407  1  0.74901000  0.81112000  0.05880000  1.0
  N  N408  1  0.22231000  0.05756000  0.46403000  1.0
  N  N409  1  0.33427000  0.17670000  0.48203000  1.0
  N  N410  1  0.41568000  0.14445000  0.39213000  1.0
  N  N411  1  0.88897000  0.39090000  0.79737000  1.0
  N  N412  1  0.00093000  0.51004000  0.81537000  1.0
  N  N413  1  0.08234000  0.47779000  0.72547000  1.0
  N  N414  1  0.27577000  0.83141000  0.13070000  1.0
  N  N415  1  0.15663000  0.82423000  0.14870000  1.0
  N  N416  1  0.18888000  0.93789000  0.05880000  1.0
  N  N417  1  0.94244000  0.16474000  0.46403000  1.0
  N  N418  1  0.82330000  0.15756000  0.48203000  1.0
  N  N419  1  0.85555000  0.27122000  0.39213000  1.0
  N  N420  1  0.60910000  0.49808000  0.79737000  1.0
  N  N421  1  0.48996000  0.49090000  0.81537000  1.0
  N  N422  1  0.52221000  0.60456000  0.72547000  1.0
  N  N423  1  0.16859000  0.44436000  0.13070000  1.0
  N  N424  1  0.17577000  0.33240000  0.14870000  1.0
  N  N425  1  0.06211000  0.25099000  0.05880000  1.0
  N  N426  1  0.83526000  0.77769000  0.46403000  1.0
  N  N427  1  0.84244000  0.66573000  0.48203000  1.0
  N  N428  1  0.72878000  0.58432000  0.39213000  1.0
  N  N429  1  0.50192000  0.11103000  0.79737000  1.0
  N  N430  1  0.50910000  0.99907000  0.81537000  1.0
  N  N431  1  0.39544000  0.91766000  0.72547000  1.0
  O  O432  1  0.36713000  0.21028000  0.03778000  1.0
  O  O433  1  0.42224000  0.17569000  0.15628000  1.0
  O  O434  1  0.39144000  0.25911000  0.20680000  1.0
  O  O435  1  0.48401000  0.28968000  0.08920000  1.0
  O  O436  1  0.37523000  0.04469000  0.21210000  1.0
  O  O437  1  0.36709000  0.95882000  0.32526000  1.0
  O  O438  1  0.27161000  0.93529000  0.21766000  1.0
  O  O439  1  0.30032000  0.01065000  0.36039000  1.0
  O  O440  1  0.03380000  0.54361000  0.37111000  1.0
  O  O441  1  0.08891000  0.50902000  0.48961000  1.0
  O  O442  1  0.05811000  0.59244000  0.54013000  1.0
  O  O443  1  0.15068000  0.62301000  0.42253000  1.0
  O  O444  1  0.04190000  0.37802000  0.54543000  1.0
  O  O445  1  0.03376000  0.29215000  0.65859000  1.0
  O  O446  1  0.93828000  0.26862000  0.55099000  1.0
  O  O447  1  0.96699000  0.34398000  0.69372000  1.0
  O  O448  1  0.70046000  0.87695000  0.70445000  1.0
  O  O449  1  0.75557000  0.84236000  0.82295000  1.0
  O  O450  1  0.72477000  0.92578000  0.87347000  1.0
  O  O451  1  0.81734000  0.95635000  0.75587000  1.0
  O  O452  1  0.70856000  0.71136000  0.87877000  1.0
  O  O453  1  0.70042000  0.62549000  0.99193000  1.0
  O  O454  1  0.60494000  0.60196000  0.88433000  1.0
  O  O455  1  0.63365000  0.67732000  0.02706000  1.0
  O  O456  1  0.78972000  0.15685000  0.03778000  1.0
  O  O457  1  0.82431000  0.24655000  0.15628000  1.0
  O  O458  1  0.74089000  0.13233000  0.20680000  1.0
  O  O459  1  0.71032000  0.19433000  0.08920000  1.0
  O  O460  1  0.95531000  0.33054000  0.21210000  1.0
  O  O461  1  0.04118000  0.40827000  0.32526000  1.0
  O  O462  1  0.06471000  0.33632000  0.21766000  1.0
  O  O463  1  0.98935000  0.28967000  0.36039000  1.0
  O  O464  1  0.45639000  0.49018000  0.37111000  1.0
  O  O465  1  0.49098000  0.57988000  0.48961000  1.0
  O  O466  1  0.40756000  0.46566000  0.54013000  1.0
  O  O467  1  0.37699000  0.52766000  0.42253000  1.0
  O  O468  1  0.62198000  0.66387000  0.54543000  1.0
  O  O469  1  0.70785000  0.74160000  0.65859000  1.0
  O  O470  1  0.73138000  0.66965000  0.55099000  1.0
  O  O471  1  0.65602000  0.62300000  0.69372000  1.0
  O  O472  1  0.12305000  0.82352000  0.70445000  1.0
  O  O473  1  0.15764000  0.91322000  0.82295000  1.0
  O  O474  1  0.07422000  0.79900000  0.87347000  1.0
  O  O475  1  0.04365000  0.86100000  0.75587000  1.0
  O  O476  1  0.28864000  0.99721000  0.87877000  1.0
  O  O477  1  0.37451000  0.07494000  0.99193000  1.0
  O  O478  1  0.39804000  0.00299000  0.88433000  1.0
  O  O479  1  0.32268000  0.95634000  0.02706000  1.0
  O  O480  1  0.84315000  0.63287000  0.03778000  1.0
  O  O481  1  0.75345000  0.57776000  0.15628000  1.0
  O  O482  1  0.86767000  0.60856000  0.20680000  1.0
  O  O483  1  0.80567000  0.51599000  0.08920000  1.0
  O  O484  1  0.66946000  0.62477000  0.21210000  1.0
  O  O485  1  0.59173000  0.63291000  0.32526000  1.0
  O  O486  1  0.66368000  0.72839000  0.21766000  1.0
  O  O487  1  0.71033000  0.69968000  0.36039000  1.0
  O  O488  1  0.50982000  0.96620000  0.37111000  1.0
  O  O489  1  0.42012000  0.91109000  0.48961000  1.0
  O  O490  1  0.53434000  0.94189000  0.54013000  1.0
  O  O491  1  0.47234000  0.84932000  0.42253000  1.0
  O  O492  1  0.33613000  0.95810000  0.54543000  1.0
  O  O493  1  0.25840000  0.96624000  0.65859000  1.0
  O  O494  1  0.33035000  0.06172000  0.55099000  1.0
  O  O495  1  0.37700000  0.03301000  0.69372000  1.0
  O  O496  1  0.17648000  0.29954000  0.70445000  1.0
  O  O497  1  0.08678000  0.24443000  0.82295000  1.0
  O  O498  1  0.20100000  0.27523000  0.87347000  1.0
  O  O499  1  0.13900000  0.18266000  0.75587000  1.0
  O  O500  1  0.00279000  0.29144000  0.87877000  1.0
  O  O501  1  0.92506000  0.29958000  0.99193000  1.0
  O  O502  1  0.99701000  0.39506000  0.88433000  1.0
  O  O503  1  0.04366000  0.36635000  0.02706000  1.0
  O  O504  1  0.63287000  0.78972000  0.96222000  1.0
  O  O505  1  0.57776000  0.82431000  0.84372000  1.0
  O  O506  1  0.60856000  0.74089000  0.79320000  1.0
  O  O507  1  0.51599000  0.71032000  0.91080000  1.0
  O  O508  1  0.62477000  0.95531000  0.78790000  1.0
  O  O509  1  0.63291000  0.04118000  0.67474000  1.0
  O  O510  1  0.72839000  0.06471000  0.78234000  1.0
  O  O511  1  0.69968000  0.98935000  0.63961000  1.0
  O  O512  1  0.29954000  0.12305000  0.29555000  1.0
  O  O513  1  0.24443000  0.15764000  0.17705000  1.0
  O  O514  1  0.27523000  0.07422000  0.12653000  1.0
  O  O515  1  0.18266000  0.04365000  0.24413000  1.0
  O  O516  1  0.29144000  0.28864000  0.12123000  1.0
  O  O517  1  0.29958000  0.37451000  0.00807000  1.0
  O  O518  1  0.39506000  0.39804000  0.11567000  1.0
  O  O519  1  0.36635000  0.32268000  0.97294000  1.0
  O  O520  1  0.96620000  0.45639000  0.62889000  1.0
  O  O521  1  0.91109000  0.49098000  0.51039000  1.0
  O  O522  1  0.94189000  0.40756000  0.45987000  1.0
  O  O523  1  0.84932000  0.37699000  0.57747000  1.0
  O  O524  1  0.95810000  0.62198000  0.45457000  1.0
  O  O525  1  0.96624000  0.70785000  0.34141000  1.0
  O  O526  1  0.06172000  0.73138000  0.44901000  1.0
  O  O527  1  0.03301000  0.65602000  0.30628000  1.0
  O  O528  1  0.21028000  0.84315000  0.96222000  1.0
  O  O529  1  0.17569000  0.75345000  0.84372000  1.0
  O  O530  1  0.25911000  0.86767000  0.79320000  1.0
  O  O531  1  0.28968000  0.80567000  0.91080000  1.0
  O  O532  1  0.04469000  0.66946000  0.78790000  1.0
  O  O533  1  0.95882000  0.59173000  0.67474000  1.0
  O  O534  1  0.93529000  0.66368000  0.78234000  1.0
  O  O535  1  0.01065000  0.71033000  0.63961000  1.0
  O  O536  1  0.87695000  0.17648000  0.29555000  1.0
  O  O537  1  0.84236000  0.08678000  0.17705000  1.0
  O  O538  1  0.92578000  0.20100000  0.12653000  1.0
  O  O539  1  0.95635000  0.13900000  0.24413000  1.0
  O  O540  1  0.71136000  0.00279000  0.12123000  1.0
  O  O541  1  0.62549000  0.92506000  0.00807000  1.0
  O  O542  1  0.60196000  0.99701000  0.11567000  1.0
  O  O543  1  0.67732000  0.04366000  0.97294000  1.0
  O  O544  1  0.54361000  0.50982000  0.62889000  1.0
  O  O545  1  0.50902000  0.42012000  0.51039000  1.0
  O  O546  1  0.59244000  0.53434000  0.45987000  1.0
  O  O547  1  0.62301000  0.47234000  0.57747000  1.0
  O  O548  1  0.37802000  0.33613000  0.45457000  1.0
  O  O549  1  0.29215000  0.25840000  0.34141000  1.0
  O  O550  1  0.26862000  0.33035000  0.44901000  1.0
  O  O551  1  0.34398000  0.37700000  0.30628000  1.0
  O  O552  1  0.15685000  0.36713000  0.96222000  1.0
  O  O553  1  0.24655000  0.42224000  0.84372000  1.0
  O  O554  1  0.13233000  0.39144000  0.79320000  1.0
  O  O555  1  0.19433000  0.48401000  0.91080000  1.0
  O  O556  1  0.33054000  0.37523000  0.78790000  1.0
  O  O557  1  0.40827000  0.36709000  0.67474000  1.0
  O  O558  1  0.33632000  0.27161000  0.78234000  1.0
  O  O559  1  0.28967000  0.30032000  0.63961000  1.0
  O  O560  1  0.82352000  0.70046000  0.29555000  1.0
  O  O561  1  0.91322000  0.75557000  0.17705000  1.0
  O  O562  1  0.79900000  0.72477000  0.12653000  1.0
  O  O563  1  0.86100000  0.81734000  0.24413000  1.0
  O  O564  1  0.99721000  0.70856000  0.12123000  1.0
  O  O565  1  0.07494000  0.70042000  0.00807000  1.0
  O  O566  1  0.00299000  0.60494000  0.11567000  1.0
  O  O567  1  0.95634000  0.63365000  0.97294000  1.0
  O  O568  1  0.49018000  0.03380000  0.62889000  1.0
  O  O569  1  0.57988000  0.08891000  0.51039000  1.0
  O  O570  1  0.46566000  0.05811000  0.45987000  1.0
  O  O571  1  0.52766000  0.15068000  0.57747000  1.0
  O  O572  1  0.66387000  0.04190000  0.45457000  1.0
  O  O573  1  0.74160000  0.03376000  0.34141000  1.0
  O  O574  1  0.66965000  0.93828000  0.44901000  1.0
  O  O575  1  0.62300000  0.96699000  0.30628000  1.0
