# generated using pymatgen
data_CdH10(C3O)6
_symmetry_space_group_name_H-M   'P 1'
_cell_length_a   11.43910000
_cell_length_b   15.44810000
_cell_length_c   19.11560000
_cell_angle_alpha   94.62500000
_cell_angle_beta   90.00000000
_cell_angle_gamma   90.00000000
_symmetry_Int_Tables_number   1
_chemical_formula_structural   CdH10(C3O)6
_chemical_formula_sum   'Cd6 H60 C108 O36'
_cell_volume   3366.96344677
_cell_formula_units_Z   6
loop_
 _symmetry_equiv_pos_site_id
 _symmetry_equiv_pos_as_xyz
  1  'x, y, z'
loop_
 _atom_site_type_symbol
 _atom_site_label
 _atom_site_symmetry_multiplicity
 _atom_site_fract_x
 _atom_site_fract_y
 _atom_site_fract_z
 _atom_site_occupancy
  Cd  Cd0  1  0.56637000  0.54334000  0.42290000  1.0
  Cd  Cd1  1  0.43363000  0.54334000  0.92290000  1.0
  Cd  Cd2  1  0.56637000  0.45666000  0.07710000  1.0
  Cd  Cd3  1  0.53199000  0.50000000  0.75000000  1.0
  Cd  Cd4  1  0.46801000  0.50000000  0.25000000  1.0
  Cd  Cd5  1  0.43363000  0.45666000  0.57710000  1.0
  H  H6  1  0.00140000  0.76370000  0.30510000  1.0
  H  H7  1  0.31480000  0.61790000  0.69270000  1.0
  H  H8  1  0.26800000  0.72010000  0.48040000  1.0
  H  H9  1  0.68170000  0.83280000  0.75530000  1.0
  H  H10  1  0.19020000  0.01960000  0.58850000  1.0
  H  H11  1  0.15000000  0.93300000  0.36700000  1.0
  H  H12  1  0.73820000  0.71070000  0.10880000  1.0
  H  H13  1  0.15000000  0.06700000  0.13300000  1.0
  H  H14  1  0.57910000  0.70650000  0.72320000  1.0
  H  H15  1  0.11940000  0.17900000  0.99980000  1.0
  H  H16  1  0.99190000  0.83660000  0.67010000  1.0
  H  H17  1  0.84400000  0.33600000  0.71400000  1.0
  H  H18  1  0.00810000  0.83660000  0.17010000  1.0
  H  H19  1  0.19560000  0.89820000  0.76120000  1.0
  H  H20  1  0.31480000  0.38210000  0.80730000  1.0
  H  H21  1  0.00140000  0.23630000  0.19490000  1.0
  H  H22  1  0.74300000  0.80600000  0.34400000  1.0
  H  H23  1  0.00810000  0.16340000  0.32990000  1.0
  H  H24  1  0.25700000  0.19400000  0.65600000  1.0
  H  H25  1  0.15600000  0.66400000  0.28600000  1.0
  H  H26  1  0.74300000  0.19400000  0.15600000  1.0
  H  H27  1  0.31150000  0.28520000  0.47510000  1.0
  H  H28  1  0.68170000  0.16720000  0.74470000  1.0
  H  H29  1  0.26180000  0.71070000  0.60880000  1.0
  H  H30  1  0.68850000  0.71480000  0.52490000  1.0
  H  H31  1  0.79180000  0.84130000  0.55680000  1.0
  H  H32  1  0.31150000  0.71480000  0.02490000  1.0
  H  H33  1  0.20820000  0.15870000  0.44320000  1.0
  H  H34  1  0.31830000  0.83280000  0.25530000  1.0
  H  H35  1  0.42090000  0.70650000  0.22320000  1.0
  H  H36  1  0.57910000  0.29350000  0.77680000  1.0
  H  H37  1  0.73820000  0.28930000  0.39120000  1.0
  H  H38  1  0.99860000  0.23630000  0.69490000  1.0
  H  H39  1  0.31830000  0.16720000  0.24470000  1.0
  H  H40  1  0.68520000  0.38210000  0.30730000  1.0
  H  H41  1  0.85000000  0.06700000  0.63300000  1.0
  H  H42  1  0.11940000  0.82100000  0.50020000  1.0
  H  H43  1  0.73200000  0.72010000  0.98040000  1.0
  H  H44  1  0.19020000  0.98040000  0.91150000  1.0
  H  H45  1  0.79180000  0.15870000  0.94320000  1.0
  H  H46  1  0.68520000  0.61790000  0.19270000  1.0
  H  H47  1  0.88060000  0.82100000  0.00020000  1.0
  H  H48  1  0.80440000  0.10180000  0.23880000  1.0
  H  H49  1  0.80440000  0.89820000  0.26120000  1.0
  H  H50  1  0.42090000  0.29350000  0.27680000  1.0
  H  H51  1  0.99860000  0.76370000  0.80510000  1.0
  H  H52  1  0.73200000  0.27990000  0.51960000  1.0
  H  H53  1  0.88060000  0.17900000  0.49980000  1.0
  H  H54  1  0.99190000  0.16340000  0.82990000  1.0
  H  H55  1  0.80980000  0.01960000  0.08850000  1.0
  H  H56  1  0.68850000  0.28520000  0.97510000  1.0
  H  H57  1  0.15600000  0.33600000  0.21400000  1.0
  H  H58  1  0.26180000  0.28930000  0.89120000  1.0
  H  H59  1  0.26800000  0.27990000  0.01960000  1.0
  H  H60  1  0.20820000  0.84130000  0.05680000  1.0
  H  H61  1  0.80980000  0.98040000  0.41150000  1.0
  H  H62  1  0.19560000  0.10180000  0.73880000  1.0
  H  H63  1  0.85000000  0.93300000  0.86700000  1.0
  H  H64  1  0.25700000  0.80600000  0.84400000  1.0
  H  H65  1  0.84400000  0.66400000  0.78600000  1.0
  C  C66  1  0.08530000  0.03050000  0.13220000  1.0
  C  C67  1  0.37550000  0.69731000  0.12108000  1.0
  C  C68  1  0.66580000  0.64462000  0.32990000  1.0
  C  C69  1  0.05590000  0.24460000  0.16000000  1.0
  C  C70  1  0.09450000  0.05200000  0.34524000  1.0
  C  C71  1  0.25450000  0.78650000  0.79734000  1.0
  C  C72  1  0.10550000  0.07920000  0.87024000  1.0
  C  C73  1  0.87380000  0.21040000  0.54310000  1.0
  C  C74  1  0.85460000  0.69580000  0.82822000  1.0
  C  C75  1  0.77910000  0.84220000  0.24753000  1.0
  C  C76  1  0.90550000  0.05200000  0.84524000  1.0
  C  C77  1  0.55990000  0.38566000  0.89814000  1.0
  C  C78  1  0.74550000  0.21350000  0.20266000  1.0
  C  C79  1  0.37550000  0.30269000  0.37892000  1.0
  C  C80  1  0.44010000  0.61434000  0.10186000  1.0
  C  C81  1  0.02200000  0.94370000  0.89238000  1.0
  C  C82  1  0.62210000  0.26670000  0.81025000  1.0
  C  C83  1  0.97800000  0.94370000  0.39238000  1.0
  C  C84  1  0.00060000  0.89180000  0.15442000  1.0
  C  C85  1  0.04860000  0.80230000  0.40420000  1.0
  C  C86  1  0.73980000  0.27020000  0.34381000  1.0
  C  C87  1  0.89450000  0.92080000  0.12976000  1.0
  C  C88  1  0.94410000  0.24460000  0.66000000  1.0
  C  C89  1  0.37790000  0.73330000  0.18975000  1.0
  C  C90  1  0.33420000  0.35538000  0.67010000  1.0
  C  C91  1  0.25350000  0.15190000  0.34081000  1.0
  C  C92  1  0.77450000  0.31776000  0.61949000  1.0
  C  C93  1  0.77420000  0.18680000  0.32297000  1.0
  C  C94  1  0.44010000  0.38566000  0.39814000  1.0
  C  C95  1  0.08530000  0.96950000  0.36780000  1.0
  C  C96  1  0.94410000  0.75540000  0.84000000  1.0
  C  C97  1  0.77910000  0.15780000  0.25247000  1.0
  C  C98  1  0.78500000  0.27080000  0.55520000  1.0
  C  C99  1  0.26020000  0.72980000  0.65619000  1.0
  C  C100  1  0.32510000  0.61969000  0.36636000  1.0
  C  C101  1  0.74550000  0.78650000  0.29734000  1.0
  C  C102  1  0.29240000  0.67460000  0.70650000  1.0
  C  C103  1  0.67490000  0.38031000  0.63364000  1.0
  C  C104  1  0.14540000  0.69580000  0.32822000  1.0
  C  C105  1  0.74930000  0.81390000  0.59011000  1.0
  C  C106  1  0.77420000  0.81320000  0.17703000  1.0
  C  C107  1  0.62450000  0.30269000  0.87892000  1.0
  C  C108  1  0.31670000  0.19120000  0.29090000  1.0
  C  C109  1  0.37790000  0.26670000  0.31025000  1.0
  C  C110  1  0.62210000  0.73330000  0.68975000  1.0
  C  C111  1  0.11870000  0.99810000  0.89438000  1.0
  C  C112  1  0.78500000  0.72920000  0.94480000  1.0
  C  C113  1  0.31670000  0.80880000  0.20910000  1.0
  C  C114  1  0.73980000  0.72980000  0.15619000  1.0
  C  C115  1  0.97800000  0.05630000  0.10762000  1.0
  C  C116  1  0.70840000  0.29705000  0.22303000  1.0
  C  C117  1  0.74650000  0.15190000  0.84081000  1.0
  C  C118  1  0.22580000  0.81320000  0.67703000  1.0
  C  C119  1  0.22580000  0.18680000  0.82297000  1.0
  C  C120  1  0.25350000  0.84810000  0.15919000  1.0
  C  C121  1  0.25070000  0.81390000  0.09011000  1.0
  C  C122  1  0.12620000  0.78960000  0.45690000  1.0
  C  C123  1  0.02200000  0.05630000  0.60762000  1.0
  C  C124  1  0.67490000  0.61969000  0.86636000  1.0
  C  C125  1  0.05590000  0.75540000  0.34000000  1.0
  C  C126  1  0.68760000  0.26180000  0.92876000  1.0
  C  C127  1  0.11870000  0.00190000  0.60562000  1.0
  C  C128  1  0.85460000  0.30420000  0.67178000  1.0
  C  C129  1  0.22090000  0.84220000  0.74753000  1.0
  C  C130  1  0.29160000  0.70295000  0.77697000  1.0
  C  C131  1  0.68760000  0.73820000  0.57124000  1.0
  C  C132  1  0.25450000  0.21350000  0.70266000  1.0
  C  C133  1  0.09450000  0.94800000  0.15476000  1.0
  C  C134  1  0.68330000  0.19120000  0.79090000  1.0
  C  C135  1  0.10550000  0.92080000  0.62976000  1.0
  C  C136  1  0.26020000  0.27020000  0.84381000  1.0
  C  C137  1  0.62450000  0.69731000  0.62108000  1.0
  C  C138  1  0.99940000  0.10820000  0.84558000  1.0
  C  C139  1  0.77450000  0.68224000  0.88051000  1.0
  C  C140  1  0.29240000  0.32540000  0.79350000  1.0
  C  C141  1  0.55990000  0.61434000  0.60186000  1.0
  C  C142  1  0.74930000  0.18610000  0.90989000  1.0
  C  C143  1  0.32510000  0.38031000  0.13364000  1.0
  C  C144  1  0.89450000  0.07920000  0.37024000  1.0
  C  C145  1  0.22090000  0.15780000  0.75247000  1.0
  C  C146  1  0.99940000  0.89180000  0.65442000  1.0
  C  C147  1  0.22550000  0.31776000  0.11949000  1.0
  C  C148  1  0.14540000  0.30420000  0.17178000  1.0
  C  C149  1  0.88130000  0.00190000  0.10562000  1.0
  C  C150  1  0.31240000  0.73820000  0.07124000  1.0
  C  C151  1  0.29160000  0.29705000  0.72303000  1.0
  C  C152  1  0.87380000  0.78960000  0.95690000  1.0
  C  C153  1  0.22550000  0.68224000  0.38051000  1.0
  C  C154  1  0.91470000  0.03050000  0.63220000  1.0
  C  C155  1  0.88130000  0.99810000  0.39438000  1.0
  C  C156  1  0.95140000  0.19770000  0.59580000  1.0
  C  C157  1  0.91470000  0.96950000  0.86780000  1.0
  C  C158  1  0.90550000  0.94800000  0.65476000  1.0
  C  C159  1  0.70760000  0.32540000  0.29350000  1.0
  C  C160  1  0.70760000  0.67460000  0.20650000  1.0
  C  C161  1  0.70840000  0.70295000  0.27697000  1.0
  C  C162  1  0.68330000  0.80880000  0.70910000  1.0
  C  C163  1  0.04860000  0.19770000  0.09580000  1.0
  C  C164  1  0.25070000  0.18610000  0.40989000  1.0
  C  C165  1  0.33420000  0.64462000  0.82990000  1.0
  C  C166  1  0.74650000  0.84810000  0.65919000  1.0
  C  C167  1  0.21500000  0.27080000  0.05520000  1.0
  C  C168  1  0.31240000  0.26180000  0.42876000  1.0
  C  C169  1  0.95140000  0.80230000  0.90420000  1.0
  C  C170  1  0.21500000  0.72920000  0.44480000  1.0
  C  C171  1  0.66580000  0.35538000  0.17010000  1.0
  C  C172  1  0.12620000  0.21040000  0.04310000  1.0
  C  C173  1  0.00060000  0.10820000  0.34558000  1.0
  O  O174  1  0.04060000  0.86289000  0.91646000  1.0
  O  O175  1  0.38640000  0.39701000  0.08157000  1.0
  O  O176  1  0.32530000  0.33432000  0.60578000  1.0
  O  O177  1  0.51540000  0.42575000  0.84978000  1.0
  O  O178  1  0.45170000  0.58627000  0.03904000  1.0
  O  O179  1  0.67470000  0.33432000  0.10578000  1.0
  O  O180  1  0.95940000  0.86289000  0.41646000  1.0
  O  O181  1  0.32530000  0.66568000  0.89422000  1.0
  O  O182  1  0.38070000  0.42756000  0.69165000  1.0
  O  O183  1  0.45170000  0.41373000  0.46096000  1.0
  O  O184  1  0.51540000  0.57425000  0.65022000  1.0
  O  O185  1  0.20260000  0.13306000  0.87601000  1.0
  O  O186  1  0.79860000  0.92605000  0.68264000  1.0
  O  O187  1  0.66060000  0.41077000  0.69562000  1.0
  O  O188  1  0.33940000  0.41077000  0.19562000  1.0
  O  O189  1  0.61360000  0.60299000  0.91843000  1.0
  O  O190  1  0.54830000  0.58627000  0.53904000  1.0
  O  O191  1  0.61930000  0.57244000  0.30835000  1.0
  O  O192  1  0.66060000  0.58923000  0.80438000  1.0
  O  O193  1  0.48460000  0.57425000  0.15022000  1.0
  O  O194  1  0.54830000  0.41373000  0.96096000  1.0
  O  O195  1  0.20140000  0.07395000  0.31736000  1.0
  O  O196  1  0.79740000  0.86694000  0.12399000  1.0
  O  O197  1  0.20140000  0.92605000  0.18264000  1.0
  O  O198  1  0.79860000  0.07395000  0.81736000  1.0
  O  O199  1  0.33940000  0.58923000  0.30438000  1.0
  O  O200  1  0.04060000  0.13711000  0.58354000  1.0
  O  O201  1  0.38640000  0.60299000  0.41843000  1.0
  O  O202  1  0.38070000  0.57244000  0.80835000  1.0
  O  O203  1  0.20260000  0.86694000  0.62399000  1.0
  O  O204  1  0.61930000  0.42756000  0.19165000  1.0
  O  O205  1  0.67470000  0.66568000  0.39422000  1.0
  O  O206  1  0.61360000  0.39701000  0.58157000  1.0
  O  O207  1  0.95940000  0.13711000  0.08354000  1.0
  O  O208  1  0.48460000  0.42575000  0.34978000  1.0
  O  O209  1  0.79740000  0.13306000  0.37601000  1.0
