# generated using pymatgen
data_Zn4H19C38N2O17
_symmetry_space_group_name_H-M   'P 1'
_cell_length_a   10.29800000
_cell_length_b   31.35110000
_cell_length_c   31.46900000
_cell_angle_alpha   90.00000000
_cell_angle_beta   90.00000000
_cell_angle_gamma   91.61590000
_symmetry_Int_Tables_number   1
_chemical_formula_structural   Zn4H19C38N2O17
_chemical_formula_sum   'Zn16 H76 C152 N8 O68'
_cell_volume   10155.84051403
_cell_formula_units_Z   4
loop_
 _symmetry_equiv_pos_site_id
 _symmetry_equiv_pos_as_xyz
  1  'x, y, z'
loop_
 _atom_site_type_symbol
 _atom_site_label
 _atom_site_symmetry_multiplicity
 _atom_site_fract_x
 _atom_site_fract_y
 _atom_site_fract_z
 _atom_site_occupancy
  Zn  Zn0  1  0.47435000  0.18284000  0.89374000  1.0
  Zn  Zn1  1  0.03022000  0.38843000  0.32115000  1.0
  Zn  Zn2  1  0.02565000  0.31716000  0.39374000  1.0
  Zn  Zn3  1  0.62376000  0.20130000  0.80904000  1.0
  Zn  Zn4  1  0.66920000  0.80157000  0.19427000  1.0
  Zn  Zn5  1  0.53022000  0.88843000  0.17885000  1.0
  Zn  Zn6  1  0.97435000  0.68284000  0.60626000  1.0
  Zn  Zn7  1  0.83080000  0.69843000  0.69427000  1.0
  Zn  Zn8  1  0.52565000  0.81716000  0.10626000  1.0
  Zn  Zn9  1  0.33080000  0.19843000  0.80573000  1.0
  Zn  Zn10  1  0.46978000  0.11157000  0.82115000  1.0
  Zn  Zn11  1  0.37624000  0.79870000  0.19096000  1.0
  Zn  Zn12  1  0.16920000  0.30157000  0.30573000  1.0
  Zn  Zn13  1  0.12376000  0.70130000  0.69096000  1.0
  Zn  Zn14  1  0.87624000  0.29870000  0.30904000  1.0
  Zn  Zn15  1  0.96978000  0.61157000  0.67885000  1.0
  H  H16  1  0.53310000  0.01950000  0.89420000  1.0
  H  H17  1  0.34070000  0.46950000  0.27090000  1.0
  H  H18  1  0.44840000  0.25000000  0.53590000  1.0
  H  H19  1  0.18650000  0.89570000  0.70240000  1.0
  H  H20  1  0.27920000  0.33490000  0.76800000  1.0
  H  H21  1  0.81810000  0.90780000  0.74210000  1.0
  H  H22  1  0.15930000  0.03050000  0.77090000  1.0
  H  H23  1  0.31350000  0.60430000  0.20240000  1.0
  H  H24  1  0.85270000  0.17650000  0.30860000  1.0
  H  H25  1  0.67480000  0.73300000  0.52360000  1.0
  H  H26  1  0.11030000  0.27740000  0.09560000  1.0
  H  H27  1  0.84070000  0.96950000  0.22910000  1.0
  H  H28  1  0.77920000  0.83490000  0.73200000  1.0
  H  H29  1  0.96690000  0.48050000  0.39420000  1.0
  H  H30  1  0.05160000  0.25000000  0.03590000  1.0
  H  H31  1  0.43090000  0.04270000  0.06710000  1.0
  H  H32  1  0.23100000  0.97000000  0.23080000  1.0
  H  H33  1  0.81350000  0.10430000  0.29760000  1.0
  H  H34  1  0.46690000  0.98050000  0.10580000  1.0
  H  H35  1  0.35620000  0.20670000  0.66590000  1.0
  H  H36  1  0.89650000  0.96670000  0.76720000  1.0
  H  H37  1  0.14380000  0.29330000  0.16590000  1.0
  H  H38  1  0.74130000  0.22640000  0.68360000  1.0
  H  H39  1  0.72080000  0.66510000  0.23200000  1.0
  H  H40  1  0.64380000  0.79330000  0.33410000  1.0
  H  H41  1  0.24130000  0.72640000  0.81640000  1.0
  H  H42  1  0.48570000  0.71900000  0.63360000  1.0
  H  H43  1  0.18190000  0.09220000  0.25790000  1.0
  H  H44  1  0.46990000  0.63910000  0.70840000  1.0
  H  H45  1  0.39650000  0.46670000  0.73280000  1.0
  H  H46  1  0.61030000  0.77740000  0.40440000  1.0
  H  H47  1  0.98570000  0.21900000  0.86640000  1.0
  H  H48  1  0.31810000  0.40780000  0.75790000  1.0
  H  H49  1  0.53010000  0.36090000  0.29160000  1.0
  H  H50  1  0.38970000  0.22260000  0.59560000  1.0
  H  H51  1  0.56910000  0.95730000  0.93290000  1.0
  H  H52  1  0.73100000  0.47000000  0.26920000  1.0
  H  H53  1  0.14730000  0.82350000  0.69140000  1.0
  H  H54  1  0.93090000  0.54270000  0.43290000  1.0
  H  H55  1  0.77120000  0.24420000  0.61220000  1.0
  H  H56  1  0.72880000  0.25580000  0.11220000  1.0
  H  H57  1  0.76900000  0.03000000  0.76920000  1.0
  H  H58  1  0.94510000  0.57980000  0.49680000  1.0
  H  H59  1  0.94840000  0.75000000  0.96410000  1.0
  H  H60  1  0.82520000  0.76700000  0.02360000  1.0
  H  H61  1  0.75870000  0.27360000  0.18360000  1.0
  H  H62  1  0.85620000  0.70670000  0.83410000  1.0
  H  H63  1  0.68190000  0.59220000  0.24210000  1.0
  H  H64  1  0.06910000  0.45730000  0.56710000  1.0
  H  H65  1  0.51430000  0.28100000  0.36640000  1.0
  H  H66  1  0.17480000  0.23300000  0.97640000  1.0
  H  H67  1  0.44510000  0.07980000  0.00320000  1.0
  H  H68  1  0.26900000  0.53000000  0.73080000  1.0
  H  H69  1  0.22080000  0.16510000  0.26800000  1.0
  H  H70  1  0.78260000  0.23660000  0.97380000  1.0
  H  H71  1  0.05490000  0.42020000  0.50320000  1.0
  H  H72  1  0.03010000  0.86090000  0.20840000  1.0
  H  H73  1  0.10350000  0.03330000  0.23280000  1.0
  H  H74  1  0.88970000  0.72260000  0.90440000  1.0
  H  H75  1  0.55160000  0.75000000  0.46410000  1.0
  H  H76  1  0.22880000  0.75580000  0.38780000  1.0
  H  H77  1  0.03310000  0.51950000  0.60580000  1.0
  H  H78  1  0.01430000  0.78100000  0.13360000  1.0
  H  H79  1  0.71740000  0.26340000  0.47380000  1.0
  H  H80  1  0.68650000  0.39570000  0.79760000  1.0
  H  H81  1  0.65930000  0.53050000  0.72910000  1.0
  H  H82  1  0.21740000  0.76340000  0.02620000  1.0
  H  H83  1  0.32520000  0.26700000  0.47640000  1.0
  H  H84  1  0.64730000  0.32350000  0.80860000  1.0
  H  H85  1  0.27120000  0.74420000  0.88780000  1.0
  H  H86  1  0.28260000  0.73660000  0.52620000  1.0
  H  H87  1  0.35270000  0.67650000  0.19140000  1.0
  H  H88  1  0.25870000  0.77360000  0.31640000  1.0
  H  H89  1  0.55490000  0.92020000  0.99680000  1.0
  H  H90  1  0.96990000  0.13910000  0.79160000  1.0
  H  H91  1  0.60350000  0.53330000  0.26720000  1.0
  C  C92  1  0.97539000  0.51879000  0.49025000  1.0
  C  C93  1  0.04579000  0.71609000  0.81976000  1.0
  C  C94  1  0.97876000  0.23676000  0.98265000  1.0
  C  C95  1  0.03607000  0.97667000  0.23205000  1.0
  C  C96  1  0.51556000  0.94406000  0.05474000  1.0
  C  C97  1  0.02367000  0.40887000  0.41270000  1.0
  C  C98  1  0.49358000  0.59058000  0.22276000  1.0
  C  C99  1  0.63590000  0.27490000  0.41722000  1.0
  C  C100  1  0.92186000  0.26426000  0.09575000  1.0
  C  C101  1  0.48444000  0.05594000  0.94526000  1.0
  C  C102  1  0.41797000  0.45497000  0.27304000  1.0
  C  C103  1  0.50642000  0.40942000  0.77724000  1.0
  C  C104  1  0.43829000  0.21409000  0.65543000  1.0
  C  C105  1  0.71964000  0.71464000  0.60473000  1.0
  C  C106  1  0.04010000  0.17800000  0.28911000  1.0
  C  C107  1  0.06171000  0.28591000  0.15543000  1.0
  C  C108  1  0.35121000  0.58801000  0.71923000  1.0
  C  C109  1  0.59646000  0.72276000  0.58141000  1.0
  C  C110  1  0.17086000  0.72646000  0.83481000  1.0
  C  C111  1  0.54290000  0.98180000  0.94682000  1.0
  C  C112  1  0.11364000  0.74674000  0.94967000  1.0
  C  C113  1  0.54822000  0.71802000  0.20090000  1.0
  C  C114  1  0.21067000  0.11297000  0.78915000  1.0
  C  C115  1  0.28036000  0.28536000  0.39527000  1.0
  C  C116  1  0.86141000  0.23331000  0.95995000  1.0
  C  C117  1  0.40354000  0.27724000  0.41859000  1.0
  C  C118  1  0.88636000  0.25326000  0.05033000  1.0
  C  C119  1  0.21964000  0.21464000  0.89527000  1.0
  C  C120  1  0.57814000  0.23574000  0.59575000  1.0
  C  C121  1  0.31080000  0.76320000  0.37732000  1.0
  C  C122  1  0.95421000  0.28391000  0.18024000  1.0
  C  C123  1  0.09680000  0.23110000  0.96154000  1.0
  C  C124  1  0.47876000  0.73676000  0.51735000  1.0
  C  C125  1  0.11594000  0.10914000  0.26804000  1.0
  C  C126  1  0.97633000  0.59113000  0.58730000  1.0
  C  C127  1  0.46107000  0.22397000  0.61367000  1.0
  C  C128  1  0.02210000  0.51910000  0.57648000  1.0
  C  C129  1  0.86410000  0.22510000  0.91722000  1.0
  C  C130  1  0.36141000  0.73331000  0.54005000  1.0
  C  C131  1  0.15189000  0.95529000  0.22782000  1.0
  C  C132  1  0.00642000  0.90942000  0.72276000  1.0
  C  C133  1  0.24661000  0.71741000  0.60624000  1.0
  C  C134  1  0.46135000  0.54435000  0.23132000  1.0
  C  C135  1  0.52675000  0.20565000  0.72426000  1.0
  C  C136  1  0.38406000  0.39086000  0.76804000  1.0
  C  C137  1  0.96860000  0.11000000  0.78556000  1.0
  C  C138  1  0.96393000  0.02333000  0.76795000  1.0
  C  C139  1  0.59680000  0.73110000  0.53846000  1.0
  C  C140  1  0.25339000  0.78259000  0.10624000  1.0
  C  C141  1  0.98444000  0.55594000  0.55474000  1.0
  C  C142  1  0.47633000  0.09113000  0.91270000  1.0
  C  C143  1  0.02461000  0.48121000  0.50975000  1.0
  C  C144  1  0.07814000  0.73574000  0.90425000  1.0
  C  C145  1  0.76925000  0.38885000  0.29287000  1.0
  C  C146  1  0.54579000  0.21609000  0.68024000  1.0
  C  C147  1  0.46393000  0.52333000  0.73205000  1.0
  C  C148  1  0.41855000  0.65965000  0.20177000  1.0
  C  C149  1  0.01629000  0.77819000  0.10414000  1.0
  C  C150  1  0.52367000  0.90887000  0.08730000  1.0
  C  C151  1  0.01556000  0.44406000  0.44526000  1.0
  C  C152  1  0.97325000  0.29435000  0.22426000  1.0
  C  C153  1  0.46860000  0.61000000  0.71444000  1.0
  C  C154  1  0.45710000  0.01820000  0.05318000  1.0
  C  C155  1  0.88406000  0.89086000  0.73196000  1.0
  C  C156  1  0.53865000  0.45565000  0.76868000  1.0
  C  C157  1  0.96519000  0.55499000  0.51124000  1.0
  C  C158  1  0.98371000  0.22181000  0.89586000  1.0
  C  C159  1  0.08203000  0.04503000  0.77304000  1.0
  C  C160  1  0.26925000  0.88885000  0.20713000  1.0
  C  C161  1  0.52124000  0.26324000  0.48265000  1.0
  C  C162  1  0.63859000  0.26669000  0.45995000  1.0
  C  C163  1  0.90354000  0.77724000  0.08141000  1.0
  C  C164  1  0.61594000  0.60914000  0.23196000  1.0
  C  C165  1  0.41532000  0.41112000  0.28145000  1.0
  C  C166  1  0.68920000  0.23680000  0.62268000  1.0
  C  C167  1  0.95710000  0.51820000  0.44682000  1.0
  C  C168  1  0.02675000  0.70565000  0.77574000  1.0
  C  C169  1  0.13947000  0.15287000  0.27402000  1.0
  C  C170  1  0.58203000  0.54503000  0.72696000  1.0
  C  C171  1  0.39538000  0.61628000  0.20808000  1.0
  C  C172  1  0.95990000  0.82200000  0.71089000  1.0
  C  C173  1  0.14879000  0.91199000  0.21923000  1.0
  C  C174  1  0.96135000  0.04435000  0.26868000  1.0
  C  C175  1  0.82914000  0.27354000  0.16519000  1.0
  C  C176  1  0.04822000  0.21802000  0.29910000  1.0
  C  C177  1  0.95178000  0.78198000  0.70090000  1.0
  C  C178  1  0.58468000  0.58888000  0.71855000  1.0
  C  C179  1  0.42186000  0.76426000  0.40425000  1.0
  C  C180  1  0.36410000  0.72510000  0.58278000  1.0
  C  C181  1  0.10462000  0.88372000  0.70808000  1.0
  C  C182  1  0.47790000  0.98090000  0.07648000  1.0
  C  C183  1  0.60462000  0.38372000  0.79192000  1.0
  C  C184  1  0.89538000  0.11628000  0.29192000  1.0
  C  C185  1  0.28933000  0.38703000  0.28915000  1.0
  C  C186  1  0.53140000  0.39000000  0.28556000  1.0
  C  C187  1  0.93829000  0.71409000  0.84457000  1.0
  C  C188  1  0.47325000  0.79435000  0.27574000  1.0
  C  C189  1  0.02124000  0.76324000  0.01735000  1.0
  C  C190  1  0.36053000  0.34713000  0.77402000  1.0
  C  C191  1  0.04290000  0.48180000  0.55318000  1.0
  C  C192  1  0.03140000  0.89000000  0.21444000  1.0
  C  C193  1  0.45990000  0.32200000  0.78911000  1.0
  C  C194  1  0.32914000  0.77354000  0.33481000  1.0
  C  C195  1  0.53481000  0.94501000  0.01124000  1.0
  C  C196  1  0.45178000  0.28198000  0.79910000  1.0
  C  C197  1  0.84811000  0.04471000  0.77218000  1.0
  C  C198  1  0.64879000  0.41199000  0.28077000  1.0
  C  C199  1  0.67086000  0.22646000  0.66519000  1.0
  C  C200  1  0.13590000  0.77490000  0.08278000  1.0
  C  C201  1  0.71067000  0.61297000  0.71085000  1.0
  C  C202  1  0.75339000  0.28259000  0.39376000  1.0
  C  C203  1  0.85121000  0.08801000  0.78077000  1.0
  C  C204  1  0.08468000  0.08888000  0.78145000  1.0
  C  C205  1  0.58145000  0.34035000  0.79823000  1.0
  C  C206  1  0.51629000  0.27819000  0.39586000  1.0
  C  C207  1  0.53607000  0.47667000  0.26795000  1.0
  C  C208  1  0.91797000  0.95497000  0.22696000  1.0
  C  C209  1  0.48371000  0.72181000  0.60414000  1.0
  C  C210  1  0.40320000  0.26890000  0.46154000  1.0
  C  C211  1  0.78036000  0.78536000  0.10473000  1.0
  C  C212  1  0.81080000  0.26320000  0.12268000  1.0
  C  C213  1  0.96107000  0.72397000  0.88633000  1.0
  C  C214  1  0.47539000  0.01879000  0.00975000  1.0
  C  C215  1  0.97790000  0.48090000  0.42352000  1.0
  C  C216  1  0.53893000  0.77603000  0.38633000  1.0
  C  C217  1  0.99358000  0.09058000  0.27724000  1.0
  C  C218  1  0.38636000  0.75326000  0.44967000  1.0
  C  C219  1  0.61364000  0.24674000  0.55033000  1.0
  C  C220  1  0.54010000  0.67800000  0.21089000  1.0
  C  C221  1  0.78933000  0.88703000  0.21085000  1.0
  C  C222  1  0.65189000  0.45529000  0.27218000  1.0
  C  C223  1  0.91532000  0.91112000  0.21855000  1.0
  C  C224  1  0.03865000  0.95565000  0.73132000  1.0
  C  C225  1  0.73075000  0.11115000  0.79287000  1.0
  C  C226  1  0.18920000  0.73680000  0.87732000  1.0
  C  C227  1  0.52461000  0.98121000  0.99025000  1.0
  C  C228  1  0.86053000  0.84713000  0.72598000  1.0
  C  C229  1  0.46519000  0.05499000  0.98876000  1.0
  C  C230  1  0.08145000  0.84035000  0.70177000  1.0
  C  C231  1  0.90320000  0.76890000  0.03846000  1.0
  C  C232  1  0.23075000  0.61115000  0.70713000  1.0
  C  C233  1  0.34811000  0.54471000  0.72782000  1.0
  C  C234  1  0.56171000  0.78591000  0.34457000  1.0
  C  C235  1  0.03481000  0.44501000  0.48876000  1.0
  C  C236  1  0.03893000  0.27603000  0.11367000  1.0
  C  C237  1  0.91855000  0.15965000  0.29823000  1.0
  C  C238  1  0.09646000  0.22276000  0.91859000  1.0
  C  C239  1  0.63947000  0.65287000  0.22598000  1.0
  C  C240  1  0.52210000  0.01910000  0.92352000  1.0
  C  C241  1  0.74661000  0.21741000  0.89376000  1.0
  C  C242  1  0.13859000  0.76669000  0.04005000  1.0
  C  C243  1  0.45421000  0.78391000  0.31976000  1.0
  N  N244  1  0.96127000  0.98086000  0.75634000  1.0
  N  N245  1  0.97560000  0.24710000  0.02475000  1.0
  N  N246  1  0.47560000  0.74710000  0.47525000  1.0
  N  N247  1  0.46127000  0.48086000  0.74366000  1.0
  N  N248  1  0.03873000  0.01914000  0.24366000  1.0
  N  N249  1  0.53873000  0.51914000  0.25634000  1.0
  N  N250  1  0.02440000  0.75290000  0.97525000  1.0
  N  N251  1  0.52440000  0.25290000  0.52475000  1.0
  O  O252  1  0.82019000  0.70904000  0.58202000  1.0
  O  O253  1  0.78557000  0.79155000  0.14285000  1.0
  O  O254  1  0.17981000  0.29096000  0.41798000  1.0
  O  O255  1  0.16707000  0.24336000  0.28845000  1.0
  O  O256  1  0.76867000  0.25128000  0.04347000  1.0
  O  O257  1  0.45651000  0.73413000  0.18432000  1.0
  O  O258  1  0.98085000  0.62889000  0.57559000  1.0
  O  O259  1  0.37258000  0.78404000  0.25415000  1.0
  O  O260  1  0.52553000  0.92127000  0.12673000  1.0
  O  O261  1  0.25104000  0.71933000  0.64519000  1.0
  O  O262  1  0.47490000  0.17038000  0.83316000  1.0
  O  O263  1  0.42166000  0.18860000  0.73423000  1.0
  O  O264  1  0.74896000  0.28067000  0.35481000  1.0
  O  O265  1  0.33293000  0.25664000  0.78845000  1.0
  O  O266  1  0.02553000  0.42127000  0.37327000  1.0
  O  O267  1  0.70655000  0.65174000  0.71172000  1.0
  O  O268  1  0.26867000  0.75128000  0.45653000  1.0
  O  O269  1  0.28557000  0.29155000  0.35715000  1.0
  O  O270  1  0.26245000  0.85119000  0.20009000  1.0
  O  O271  1  0.73755000  0.14881000  0.79991000  1.0
  O  O272  1  0.87508000  0.41049000  0.29341000  1.0
  O  O273  1  0.12492000  0.58951000  0.70659000  1.0
  O  O274  1  0.47447000  0.07873000  0.87327000  1.0
  O  O275  1  0.20655000  0.15174000  0.78828000  1.0
  O  O276  1  0.66707000  0.74336000  0.21155000  1.0
  O  O277  1  0.63199000  0.46874000  0.78503000  1.0
  O  O278  1  0.69254000  0.90878000  0.20549000  1.0
  O  O279  1  0.62492000  0.08951000  0.79341000  1.0
  O  O280  1  0.30746000  0.09122000  0.79451000  1.0
  O  O281  1  0.86801000  0.03126000  0.28503000  1.0
  O  O282  1  0.97447000  0.57873000  0.62673000  1.0
  O  O283  1  0.12742000  0.71596000  0.75415000  1.0
  O  O284  1  0.23755000  0.64881000  0.70009000  1.0
  O  O285  1  0.97490000  0.67038000  0.66684000  1.0
  O  O286  1  0.79345000  0.84826000  0.21172000  1.0
  O  O287  1  0.19254000  0.40878000  0.29451000  1.0
  O  O288  1  0.76245000  0.35119000  0.29991000  1.0
  O  O289  1  0.71443000  0.70845000  0.64285000  1.0
  O  O290  1  0.32019000  0.20904000  0.91798000  1.0
  O  O291  1  0.04349000  0.76587000  0.68432000  1.0
  O  O292  1  0.37508000  0.91049000  0.20659000  1.0
  O  O293  1  0.36801000  0.53126000  0.21497000  1.0
  O  O294  1  0.83293000  0.75664000  0.71155000  1.0
  O  O295  1  0.80746000  0.59122000  0.70549000  1.0
  O  O296  1  0.95651000  0.23413000  0.31568000  1.0
  O  O297  1  0.29345000  0.34826000  0.28828000  1.0
  O  O298  1  0.62742000  0.21596000  0.74585000  1.0
  O  O299  1  0.73133000  0.24872000  0.54347000  1.0
  O  O300  1  0.48085000  0.12889000  0.92441000  1.0
  O  O301  1  0.02510000  0.32962000  0.33316000  1.0
  O  O302  1  0.67981000  0.79096000  0.08202000  1.0
  O  O303  1  0.35524000  0.78892000  0.08563000  1.0
  O  O304  1  0.54349000  0.26587000  0.81568000  1.0
  O  O305  1  0.13199000  0.96874000  0.71497000  1.0
  O  O306  1  0.51915000  0.87111000  0.07559000  1.0
  O  O307  1  0.64476000  0.21108000  0.91437000  1.0
  O  O308  1  0.07834000  0.31140000  0.23423000  1.0
  O  O309  1  0.85524000  0.28892000  0.41437000  1.0
  O  O310  1  0.57834000  0.81140000  0.26577000  1.0
  O  O311  1  0.75104000  0.21933000  0.85481000  1.0
  O  O312  1  0.92166000  0.68860000  0.76577000  1.0
  O  O313  1  0.24896000  0.78067000  0.14519000  1.0
  O  O314  1  0.87258000  0.28404000  0.24585000  1.0
  O  O315  1  0.01915000  0.37111000  0.42441000  1.0
  O  O316  1  0.14476000  0.71108000  0.58563000  1.0
  O  O317  1  0.52510000  0.82962000  0.16684000  1.0
  O  O318  1  0.21443000  0.20845000  0.85715000  1.0
  O  O319  1  0.23133000  0.74872000  0.95653000  1.0
