# generated using pymatgen
data_Zr3H28(C11O4)4
_symmetry_space_group_name_H-M   'P 1'
_cell_length_a   39.38750000
_cell_length_b   39.38750000
_cell_length_c   16.48290000
_cell_angle_alpha   90.00000000
_cell_angle_beta   90.00000000
_cell_angle_gamma   120.00000000
_symmetry_Int_Tables_number   1
_chemical_formula_structural   Zr3H28(C11O4)4
_chemical_formula_sum   'Zr18 H168 C264 O96'
_cell_volume   22145.27551779
_cell_formula_units_Z   6
loop_
 _symmetry_equiv_pos_site_id
 _symmetry_equiv_pos_as_xyz
  1  'x, y, z'
loop_
 _atom_site_type_symbol
 _atom_site_label
 _atom_site_symmetry_multiplicity
 _atom_site_fract_x
 _atom_site_fract_y
 _atom_site_fract_z
 _atom_site_occupancy
  Zr  Zr0  1  0.00044000  0.45714000  0.89684000  1.0
  Zr  Zr1  1  0.00062000  0.54280000  0.89688000  1.0
  Zr  Zr2  1  0.00036000  0.45676000  0.09992000  1.0
  Zr  Zr3  1  0.00048000  0.54295000  0.10052000  1.0
  Zr  Zr4  1  0.05999000  0.52969000  0.99927000  1.0
  Zr  Zr5  1  0.94076000  0.47023000  0.99907000  1.0
  Zr  Zr6  1  0.45746000  0.45768000  0.10258000  1.0
  Zr  Zr7  1  0.54326000  0.54322000  0.10322000  1.0
  Zr  Zr8  1  0.45728000  0.45746000  0.89928000  1.0
  Zr  Zr9  1  0.54347000  0.54338000  0.89942000  1.0
  Zr  Zr10  1  0.47096000  0.53041000  0.00092000  1.0
  Zr  Zr11  1  0.53023000  0.47065000  0.00101000  1.0
  Zr  Zr12  1  0.45681000  0.99979000  0.09908000  1.0
  Zr  Zr13  1  0.54220000  0.99977000  0.10109000  1.0
  Zr  Zr14  1  0.45698000  0.99923000  0.89581000  1.0
  Zr  Zr15  1  0.54313000  0.99915000  0.89707000  1.0
  Zr  Zr16  1  0.52980000  0.05894000  0.99651000  1.0
  Zr  Zr17  1  0.46998000  0.93985000  0.99822000  1.0
  H  H18  1  0.16726000  0.50690000  0.57373000  1.0
  H  H19  1  0.16716000  0.50746000  0.42901000  1.0
  H  H20  1  0.33846000  0.50546000  0.57105000  1.0
  H  H21  1  0.33831000  0.50598000  0.42645000  1.0
  H  H22  1  0.24985000  0.49907000  0.78113000  1.0
  H  H23  1  0.24967000  0.50147000  0.21894000  1.0
  H  H24  1  0.22265000  0.55075000  0.20198000  1.0
  H  H25  1  0.16967000  0.54827000  0.11962000  1.0
  H  H26  1  0.08571000  0.44620000  0.25377000  1.0
  H  H27  1  0.13899000  0.44862000  0.33395000  1.0
  H  H28  1  0.30490000  0.44627000  0.32836000  1.0
  H  H29  1  0.35625000  0.44411000  0.24862000  1.0
  H  H30  1  0.37978000  0.55035000  0.12541000  1.0
  H  H31  1  0.32850000  0.55252000  0.20642000  1.0
  H  H32  1  0.30796000  0.44652000  0.66563000  1.0
  H  H33  1  0.35966000  0.44478000  0.74474000  1.0
  H  H34  1  0.37761000  0.54707000  0.87779000  1.0
  H  H35  1  0.32655000  0.54886000  0.79689000  1.0
  H  H36  1  0.22303000  0.54955000  0.79891000  1.0
  H  H37  1  0.16999000  0.54753000  0.88048000  1.0
  H  H38  1  0.08603000  0.44505000  0.74736000  1.0
  H  H39  1  0.13931000  0.44710000  0.66790000  1.0
  H  H40  1  0.49348000  0.66060000  0.57412000  1.0
  H  H41  1  0.49368000  0.66099000  0.42943000  1.0
  H  H42  1  0.49658000  0.83413000  0.57597000  1.0
  H  H43  1  0.49664000  0.83440000  0.43081000  1.0
  H  H44  1  0.50065000  0.74955000  0.78382000  1.0
  H  H45  1  0.50009000  0.75017000  0.22168000  1.0
  H  H46  1  0.44892000  0.67212000  0.20826000  1.0
  H  H47  1  0.45141000  0.62140000  0.12595000  1.0
  H  H48  1  0.55668000  0.64349000  0.25152000  1.0
  H  H49  1  0.55418000  0.69429000  0.33261000  1.0
  H  H50  1  0.55480000  0.86077000  0.33093000  1.0
  H  H51  1  0.55789000  0.91338000  0.24628000  1.0
  H  H52  1  0.45272000  0.82940000  0.12167000  1.0
  H  H53  1  0.44968000  0.77692000  0.20733000  1.0
  H  H54  1  0.55507000  0.86031000  0.67319000  1.0
  H  H55  1  0.55803000  0.91345000  0.75478000  1.0
  H  H56  1  0.45381000  0.82985000  0.88380000  1.0
  H  H57  1  0.45099000  0.77701000  0.80034000  1.0
  H  H58  1  0.45057000  0.67281000  0.80022000  1.0
  H  H59  1  0.45265000  0.62175000  0.88136000  1.0
  H  H60  1  0.55489000  0.64017000  0.74737000  1.0
  H  H61  1  0.55285000  0.69157000  0.66844000  1.0
  H  H62  1  0.33755000  0.83377000  0.57148000  1.0
  H  H63  1  0.33703000  0.83372000  0.42642000  1.0
  H  H64  1  0.16758000  0.65986000  0.57308000  1.0
  H  H65  1  0.16729000  0.65963000  0.42836000  1.0
  H  H66  1  0.24997000  0.74955000  0.78119000  1.0
  H  H67  1  0.24884000  0.74881000  0.21873000  1.0
  H  H68  1  0.32636000  0.77647000  0.20351000  1.0
  H  H69  1  0.37595000  0.82929000  0.11872000  1.0
  H  H70  1  0.35409000  0.91271000  0.24369000  1.0
  H  H71  1  0.30440000  0.85975000  0.32754000  1.0
  H  H72  1  0.13862000  0.69022000  0.33319000  1.0
  H  H73  1  0.08562000  0.63934000  0.25261000  1.0
  H  H74  1  0.17002000  0.62153000  0.11941000  1.0
  H  H75  1  0.22279000  0.67223000  0.20203000  1.0
  H  H76  1  0.13941000  0.69139000  0.66755000  1.0
  H  H77  1  0.08617000  0.64032000  0.74732000  1.0
  H  H78  1  0.17013000  0.62181000  0.88046000  1.0
  H  H79  1  0.22315000  0.67269000  0.79857000  1.0
  H  H80  1  0.32655000  0.77696000  0.79790000  1.0
  H  H81  1  0.37659000  0.82976000  0.88144000  1.0
  H  H82  1  0.35705000  0.91362000  0.75069000  1.0
  H  H83  1  0.30677000  0.86052000  0.66909000  1.0
  H  H84  1  0.83586000  0.49706000  0.57291000  1.0
  H  H85  1  0.83596000  0.49699000  0.42782000  1.0
  H  H86  1  0.66413000  0.49764000  0.57207000  1.0
  H  H87  1  0.66432000  0.49774000  0.42706000  1.0
  H  H88  1  0.75205000  0.50193000  0.78120000  1.0
  H  H89  1  0.75249000  0.50193000  0.21875000  1.0
  H  H90  1  0.77882000  0.45198000  0.20185000  1.0
  H  H91  1  0.83110000  0.45448000  0.11685000  1.0
  H  H92  1  0.91587000  0.55771000  0.24678000  1.0
  H  H93  1  0.86333000  0.55507000  0.32998000  1.0
  H  H94  1  0.69667000  0.55667000  0.32838000  1.0
  H  H95  1  0.64630000  0.55929000  0.24589000  1.0
  H  H96  1  0.62453000  0.45399000  0.12107000  1.0
  H  H97  1  0.67486000  0.45141000  0.20463000  1.0
  H  H98  1  0.69561000  0.55604000  0.67102000  1.0
  H  H99  1  0.64521000  0.55847000  0.75374000  1.0
  H  H100  1  0.62430000  0.45363000  0.87930000  1.0
  H  H101  1  0.67466000  0.45123000  0.79544000  1.0
  H  H102  1  0.77877000  0.45227000  0.79833000  1.0
  H  H103  1  0.83119000  0.45489000  0.88292000  1.0
  H  H104  1  0.91567000  0.55829000  0.75299000  1.0
  H  H105  1  0.86296000  0.55553000  0.67019000  1.0
  H  H106  1  0.50113000  0.33751000  0.57120000  1.0
  H  H107  1  0.50152000  0.33773000  0.42623000  1.0
  H  H108  1  0.50354000  0.16676000  0.57099000  1.0
  H  H109  1  0.50348000  0.16676000  0.42639000  1.0
  H  H110  1  0.49654000  0.24889000  0.77976000  1.0
  H  H111  1  0.49746000  0.24942000  0.21770000  1.0
  H  H112  1  0.54756000  0.32617000  0.20179000  1.0
  H  H113  1  0.54541000  0.37636000  0.11763000  1.0
  H  H114  1  0.44129000  0.35684000  0.24551000  1.0
  H  H115  1  0.44360000  0.30651000  0.32780000  1.0
  H  H116  1  0.44355000  0.13910000  0.32910000  1.0
  H  H117  1  0.44214000  0.08595000  0.24896000  1.0
  H  H118  1  0.54740000  0.17003000  0.12463000  1.0
  H  H119  1  0.54883000  0.22290000  0.20582000  1.0
  H  H120  1  0.44395000  0.13886000  0.66830000  1.0
  H  H121  1  0.44295000  0.08575000  0.74740000  1.0
  H  H122  1  0.54777000  0.16975000  0.87298000  1.0
  H  H123  1  0.54880000  0.22283000  0.79252000  1.0
  H  H124  1  0.54564000  0.32479000  0.79665000  1.0
  H  H125  1  0.54347000  0.37477000  0.88055000  1.0
  H  H126  1  0.44079000  0.35731000  0.74970000  1.0
  H  H127  1  0.44293000  0.30666000  0.66752000  1.0
  H  H128  1  0.66130000  0.16678000  0.57392000  1.0
  H  H129  1  0.66104000  0.16705000  0.42923000  1.0
  H  H130  1  0.83468000  0.33737000  0.57413000  1.0
  H  H131  1  0.83445000  0.33752000  0.42904000  1.0
  H  H132  1  0.75075000  0.24872000  0.78285000  1.0
  H  H133  1  0.74955000  0.24999000  0.22043000  1.0
  H  H134  1  0.67190000  0.22328000  0.20636000  1.0
  H  H135  1  0.62104000  0.17028000  0.12360000  1.0
  H  H136  1  0.64192000  0.08653000  0.25000000  1.0
  H  H137  1  0.69279000  0.13952000  0.33144000  1.0
  H  H138  1  0.86047000  0.30522000  0.32937000  1.0
  H  H139  1  0.91338000  0.35506000  0.24581000  1.0
  H  H140  1  0.82995000  0.37724000  0.12174000  1.0
  H  H141  1  0.77715000  0.32747000  0.20635000  1.0
  H  H142  1  0.86171000  0.30622000  0.67114000  1.0
  H  H143  1  0.91479000  0.35655000  0.75278000  1.0
  H  H144  1  0.83081000  0.37586000  0.88362000  1.0
  H  H145  1  0.77802000  0.32568000  0.80023000  1.0
  H  H146  1  0.67339000  0.22170000  0.79886000  1.0
  H  H147  1  0.62201000  0.16842000  0.87912000  1.0
  H  H148  1  0.64130000  0.08486000  0.74646000  1.0
  H  H149  1  0.69296000  0.13846000  0.66814000  1.0
  H  H150  1  0.94891000  0.47425000  0.83417000  1.0
  H  H151  1  0.05347000  0.59511000  0.99892000  1.0
  H  H152  1  0.94952000  0.47461000  0.16415000  1.0
  H  H153  1  0.05367000  0.45795000  0.99878000  1.0
  H  H154  1  0.98368000  0.59630000  0.93517000  1.0
  H  H155  1  0.00230000  0.60643000  0.14384000  1.0
  H  H156  1  0.01539000  0.53525000  0.25004000  1.0
  H  H157  1  0.99415000  0.46999000  0.25082000  1.0
  H  H158  1  0.00240000  0.39451000  0.13654000  1.0
  H  H159  1  0.00217000  0.39571000  0.84867000  1.0
  H  H160  1  0.99916000  0.43577000  0.74797000  1.0
  H  H161  1  0.99951000  0.56200000  0.74802000  1.0
  H  H162  1  0.52600000  0.47454000  0.16582000  1.0
  H  H163  1  0.54286000  0.59571000  0.00108000  1.0
  H  H164  1  0.52569000  0.47415000  0.83649000  1.0
  H  H165  1  0.40532000  0.45894000  0.00041000  1.0
  H  H166  1  0.61415000  0.59634000  0.06661000  1.0
  H  H167  1  0.60561000  0.60721000  0.85971000  1.0
  H  H168  1  0.53228000  0.52205000  0.74887000  1.0
  H  H169  1  0.46608000  0.48064000  0.75011000  1.0
  H  H170  1  0.39324000  0.39553000  0.85943000  1.0
  H  H171  1  0.39392000  0.39629000  0.14946000  1.0
  H  H172  1  0.43682000  0.43591000  0.25110000  1.0
  H  H173  1  0.56362000  0.56220000  0.25219000  1.0
  H  H174  1  0.47352000  0.94827000  0.16320000  1.0
  H  H175  1  0.59506000  0.05227000  0.99908000  1.0
  H  H176  1  0.47479000  0.94835000  0.83276000  1.0
  H  H177  1  0.45805000  0.05272000  0.99702000  1.0
  H  H178  1  0.59580000  0.98272000  0.06458000  1.0
  H  H179  1  0.60664000  0.00048000  0.85593000  1.0
  H  H180  1  0.53613000  0.01297000  0.74649000  1.0
  H  H181  1  0.47825000  0.01105000  0.74561000  1.0
  H  H182  1  0.39479000  0.00071000  0.85555000  1.0
  H  H183  1  0.39499000  0.00127000  0.14519000  1.0
  H  H184  1  0.43482000  0.99824000  0.24762000  1.0
  H  H185  1  0.56043000  0.99867000  0.25070000  1.0
  C  C186  1  0.21865000  0.50033000  0.67475000  1.0
  C  C187  1  0.25016000  0.50004000  0.71540000  1.0
  C  C188  1  0.28144000  0.49972000  0.67374000  1.0
  C  C189  1  0.28139000  0.50052000  0.58685000  1.0
  C  C190  1  0.24994000  0.50058000  0.54384000  1.0
  C  C191  1  0.21898000  0.50109000  0.58782000  1.0
  C  C192  1  0.19001000  0.50400000  0.54339000  1.0
  C  C193  1  0.18994000  0.50433000  0.45857000  1.0
  C  C194  1  0.21886000  0.50180000  0.41318000  1.0
  C  C195  1  0.24989000  0.50099000  0.45628000  1.0
  C  C196  1  0.31282000  0.50297000  0.54152000  1.0
  C  C197  1  0.31276000  0.50334000  0.45677000  1.0
  C  C198  1  0.28131000  0.50138000  0.41237000  1.0
  C  C199  1  0.28130000  0.50142000  0.32554000  1.0
  C  C200  1  0.25000000  0.50196000  0.28470000  1.0
  C  C201  1  0.21843000  0.50171000  0.32619000  1.0
  C  C202  1  0.31291000  0.49999000  0.27532000  1.0
  C  C203  1  0.18528000  0.50043000  0.27626000  1.0
  C  C204  1  0.18563000  0.49900000  0.72524000  1.0
  C  C205  1  0.31338000  0.49833000  0.72328000  1.0
  C  C206  1  0.19283000  0.52780000  0.21375000  1.0
  C  C207  1  0.16218000  0.52626000  0.16623000  1.0
  C  C208  1  0.12260000  0.49713000  0.17920000  1.0
  C  C209  1  0.11532000  0.46942000  0.24123000  1.0
  C  C210  1  0.14601000  0.47086000  0.28809000  1.0
  C  C211  1  0.32124000  0.46934000  0.28470000  1.0
  C  C212  1  0.35072000  0.46807000  0.23844000  1.0
  C  C213  1  0.37272000  0.49714000  0.18007000  1.0
  C  C214  1  0.36376000  0.52738000  0.16943000  1.0
  C  C215  1  0.33429000  0.52869000  0.21604000  1.0
  C  C216  1  0.32330000  0.46888000  0.71119000  1.0
  C  C217  1  0.35307000  0.46786000  0.75725000  1.0
  C  C218  1  0.37369000  0.49586000  0.81863000  1.0
  C  C219  1  0.36300000  0.52482000  0.83168000  1.0
  C  C220  1  0.33347000  0.52595000  0.78506000  1.0
  C  C221  1  0.19320000  0.52658000  0.78730000  1.0
  C  C222  1  0.16252000  0.52533000  0.83432000  1.0
  C  C223  1  0.12292000  0.49626000  0.82130000  1.0
  C  C224  1  0.11565000  0.46825000  0.75993000  1.0
  C  C225  1  0.14635000  0.46943000  0.71355000  1.0
  C  C226  1  0.49980000  0.71790000  0.67654000  1.0
  C  C227  1  0.49992000  0.74936000  0.71807000  1.0
  C  C228  1  0.50053000  0.78128000  0.67737000  1.0
  C  C229  1  0.50029000  0.78124000  0.59037000  1.0
  C  C230  1  0.50017000  0.74994000  0.54652000  1.0
  C  C231  1  0.49936000  0.71808000  0.58966000  1.0
  C  C232  1  0.49656000  0.68646000  0.54447000  1.0
  C  C233  1  0.49660000  0.68665000  0.45974000  1.0
  C  C234  1  0.49927000  0.71840000  0.41529000  1.0
  C  C235  1  0.50010000  0.75007000  0.45897000  1.0
  C  C236  1  0.49864000  0.81088000  0.54570000  1.0
  C  C237  1  0.49862000  0.81103000  0.46075000  1.0
  C  C238  1  0.50013000  0.78149000  0.41559000  1.0
  C  C239  1  0.50012000  0.78167000  0.32857000  1.0
  C  C240  1  0.49952000  0.74991000  0.28744000  1.0
  C  C241  1  0.49957000  0.71849000  0.32852000  1.0
  C  C242  1  0.50148000  0.81453000  0.27768000  1.0
  C  C243  1  0.50092000  0.68690000  0.27840000  1.0
  C  C244  1  0.50102000  0.68595000  0.72621000  1.0
  C  C245  1  0.50224000  0.81430000  0.72831000  1.0
  C  C246  1  0.47258000  0.66609000  0.21815000  1.0
  C  C247  1  0.47409000  0.63699000  0.17077000  1.0
  C  C248  1  0.50420000  0.62787000  0.18163000  1.0
  C  C249  1  0.53287000  0.64924000  0.24112000  1.0
  C  C250  1  0.53138000  0.67835000  0.28818000  1.0
  C  C251  1  0.53210000  0.85359000  0.28607000  1.0
  C  C252  1  0.53401000  0.88378000  0.23667000  1.0
  C  C253  1  0.50561000  0.87608000  0.17615000  1.0
  C  C254  1  0.47532000  0.83683000  0.16687000  1.0
  C  C255  1  0.47342000  0.80663000  0.21645000  1.0
  C  C256  1  0.53257000  0.85336000  0.71839000  1.0
  C  C257  1  0.53433000  0.88394000  0.76614000  1.0
  C  C258  1  0.50607000  0.87671000  0.82694000  1.0
  C  C259  1  0.47627000  0.83727000  0.83827000  1.0
  C  C260  1  0.47450000  0.80672000  0.79000000  1.0
  C  C261  1  0.47349000  0.66591000  0.78830000  1.0
  C  C262  1  0.47479000  0.63647000  0.83506000  1.0
  C  C263  1  0.50382000  0.62592000  0.82169000  1.0
  C  C264  1  0.53172000  0.64662000  0.76015000  1.0
  C  C265  1  0.53054000  0.67621000  0.71408000  1.0
  C  C266  1  0.28141000  0.78113000  0.67423000  1.0
  C  C267  1  0.25026000  0.74922000  0.71544000  1.0
  C  C268  1  0.21876000  0.71759000  0.67448000  1.0
  C  C269  1  0.21904000  0.71752000  0.58755000  1.0
  C  C270  1  0.24979000  0.74933000  0.54378000  1.0
  C  C271  1  0.28114000  0.78084000  0.58711000  1.0
  C  C272  1  0.31213000  0.81041000  0.54176000  1.0
  C  C273  1  0.31186000  0.81036000  0.45681000  1.0
  C  C274  1  0.28066000  0.78063000  0.41219000  1.0
  C  C275  1  0.24959000  0.74920000  0.45611000  1.0
  C  C276  1  0.19016000  0.68568000  0.54290000  1.0
  C  C277  1  0.18999000  0.68553000  0.45810000  1.0
  C  C278  1  0.21868000  0.71723000  0.41290000  1.0
  C  C279  1  0.21811000  0.71702000  0.32594000  1.0
  C  C280  1  0.24934000  0.74863000  0.28448000  1.0
  C  C281  1  0.28050000  0.78069000  0.32516000  1.0
  C  C282  1  0.18514000  0.68498000  0.27591000  1.0
  C  C283  1  0.31175000  0.81373000  0.27399000  1.0
  C  C284  1  0.31303000  0.81429000  0.72487000  1.0
  C  C285  1  0.18573000  0.68579000  0.72482000  1.0
  C  C286  1  0.33216000  0.80612000  0.21284000  1.0
  C  C287  1  0.36058000  0.83653000  0.16378000  1.0
  C  C288  1  0.36945000  0.87576000  0.17346000  1.0
  C  C289  1  0.34845000  0.88317000  0.23376000  1.0
  C  C290  1  0.32004000  0.85275000  0.28266000  1.0
  C  C291  1  0.14581000  0.67511000  0.28740000  1.0
  C  C292  1  0.11528000  0.64583000  0.24028000  1.0
  C  C293  1  0.12276000  0.62545000  0.17839000  1.0
  C  C294  1  0.16239000  0.63602000  0.16585000  1.0
  C  C295  1  0.19291000  0.66523000  0.21355000  1.0
  C  C296  1  0.14646000  0.67611000  0.71322000  1.0
  C  C297  1  0.11578000  0.64670000  0.75983000  1.0
  C  C298  1  0.12306000  0.62603000  0.82135000  1.0
  C  C299  1  0.16266000  0.63651000  0.83422000  1.0
  C  C300  1  0.19332000  0.66584000  0.78699000  1.0
  C  C301  1  0.33300000  0.80672000  0.78709000  1.0
  C  C302  1  0.36181000  0.83727000  0.83545000  1.0
  C  C303  1  0.37178000  0.87679000  0.82381000  1.0
  C  C304  1  0.35103000  0.88406000  0.76237000  1.0
  C  C305  1  0.32214000  0.85347000  0.71454000  1.0
  C  C306  1  0.78363000  0.50179000  0.67460000  1.0
  C  C307  1  0.75188000  0.50141000  0.71545000  1.0
  C  C308  1  0.72060000  0.50179000  0.67423000  1.0
  C  C309  1  0.72085000  0.50178000  0.58722000  1.0
  C  C310  1  0.75243000  0.50211000  0.54381000  1.0
  C  C311  1  0.78351000  0.50166000  0.58754000  1.0
  C  C312  1  0.81283000  0.49954000  0.54272000  1.0
  C  C313  1  0.81289000  0.49949000  0.45777000  1.0
  C  C314  1  0.78365000  0.50159000  0.41264000  1.0
  C  C315  1  0.75251000  0.50211000  0.45614000  1.0
  C  C316  1  0.68962000  0.49993000  0.54214000  1.0
  C  C317  1  0.68972000  0.49998000  0.45726000  1.0
  C  C318  1  0.72106000  0.50186000  0.41249000  1.0
  C  C319  1  0.72100000  0.50195000  0.32552000  1.0
  C  C320  1  0.75224000  0.50142000  0.28450000  1.0
  C  C321  1  0.78387000  0.50163000  0.32555000  1.0
  C  C322  1  0.68944000  0.50334000  0.27485000  1.0
  C  C323  1  0.81670000  0.50274000  0.27461000  1.0
  C  C324  1  0.81650000  0.50311000  0.72563000  1.0
  C  C325  1  0.68883000  0.50294000  0.72479000  1.0
  C  C326  1  0.80868000  0.47517000  0.21220000  1.0
  C  C327  1  0.83891000  0.47677000  0.16296000  1.0
  C  C328  1  0.87851000  0.50625000  0.17383000  1.0
  C  C329  1  0.88621000  0.53426000  0.23557000  1.0
  C  C330  1  0.85596000  0.53265000  0.28437000  1.0
  C  C331  1  0.68091000  0.53388000  0.28383000  1.0
  C  C332  1  0.65208000  0.53550000  0.23574000  1.0
  C  C333  1  0.63089000  0.50687000  0.17595000  1.0
  C  C334  1  0.64001000  0.47672000  0.16586000  1.0
  C  C335  1  0.66886000  0.47511000  0.21416000  1.0
  C  C336  1  0.68001000  0.53328000  0.71570000  1.0
  C  C337  1  0.65115000  0.53478000  0.76394000  1.0
  C  C338  1  0.63020000  0.50625000  0.82409000  1.0
  C  C339  1  0.63957000  0.47627000  0.83424000  1.0
  C  C340  1  0.66845000  0.47478000  0.78575000  1.0
  C  C341  1  0.80859000  0.47554000  0.78794000  1.0
  C  C342  1  0.83890000  0.47721000  0.83693000  1.0
  C  C343  1  0.87846000  0.50674000  0.82583000  1.0
  C  C344  1  0.88605000  0.53480000  0.76431000  1.0
  C  C345  1  0.85571000  0.53313000  0.71578000  1.0
  C  C346  1  0.49644000  0.28054000  0.67303000  1.0
  C  C347  1  0.49719000  0.24935000  0.71401000  1.0
  C  C348  1  0.49756000  0.21809000  0.67273000  1.0
  C  C349  1  0.49786000  0.21851000  0.58591000  1.0
  C  C350  1  0.49702000  0.24945000  0.54250000  1.0
  C  C351  1  0.49689000  0.28070000  0.58606000  1.0
  C  C352  1  0.49888000  0.31208000  0.54116000  1.0
  C  C353  1  0.49914000  0.31223000  0.45626000  1.0
  C  C354  1  0.49738000  0.28099000  0.41133000  1.0
  C  C355  1  0.49717000  0.24956000  0.45497000  1.0
  C  C356  1  0.50058000  0.18957000  0.54107000  1.0
  C  C357  1  0.50056000  0.18958000  0.45638000  1.0
  C  C358  1  0.49794000  0.21860000  0.41162000  1.0
  C  C359  1  0.49769000  0.21826000  0.32488000  1.0
  C  C360  1  0.49792000  0.24979000  0.28346000  1.0
  C  C361  1  0.49746000  0.28111000  0.32430000  1.0
  C  C362  1  0.49671000  0.18536000  0.27522000  1.0
  C  C363  1  0.49633000  0.31275000  0.27337000  1.0
  C  C364  1  0.49502000  0.31207000  0.72373000  1.0
  C  C365  1  0.49688000  0.18524000  0.72249000  1.0
  C  C366  1  0.52424000  0.33268000  0.21178000  1.0
  C  C367  1  0.52284000  0.36154000  0.16309000  1.0
  C  C368  1  0.49326000  0.37153000  0.17382000  1.0
  C  C369  1  0.46485000  0.35077000  0.23456000  1.0
  C  C370  1  0.46624000  0.32187000  0.28278000  1.0
  C  C371  1  0.46656000  0.14615000  0.28510000  1.0
  C  C372  1  0.46573000  0.11563000  0.23872000  1.0
  C  C373  1  0.49472000  0.12326000  0.17984000  1.0
  C  C374  1  0.52449000  0.16264000  0.16903000  1.0
  C  C375  1  0.52538000  0.19312000  0.21571000  1.0
  C  C376  1  0.46697000  0.14598000  0.71231000  1.0
  C  C377  1  0.46638000  0.11545000  0.75820000  1.0
  C  C378  1  0.49538000  0.12298000  0.81710000  1.0
  C  C379  1  0.52488000  0.16243000  0.82853000  1.0
  C  C380  1  0.52553000  0.19299000  0.78224000  1.0
  C  C381  1  0.52258000  0.33161000  0.78592000  1.0
  C  C382  1  0.52118000  0.36044000  0.83441000  1.0
  C  C383  1  0.49202000  0.37094000  0.82281000  1.0
  C  C384  1  0.46399000  0.35077000  0.76119000  1.0
  C  C385  1  0.46530000  0.32171000  0.71321000  1.0
  C  C386  1  0.71889000  0.21782000  0.67576000  1.0
  C  C387  1  0.75044000  0.24926000  0.71712000  1.0
  C  C388  1  0.78227000  0.28068000  0.67624000  1.0
  C  C389  1  0.78192000  0.28077000  0.58912000  1.0
  C  C390  1  0.75047000  0.24952000  0.54546000  1.0
  C  C391  1  0.71880000  0.21846000  0.58887000  1.0
  C  C392  1  0.68703000  0.18961000  0.54397000  1.0
  C  C393  1  0.68684000  0.18979000  0.45920000  1.0
  C  C394  1  0.71837000  0.21886000  0.41431000  1.0
  C  C395  1  0.75025000  0.24970000  0.45782000  1.0
  C  C396  1  0.81136000  0.31203000  0.54411000  1.0
  C  C397  1  0.81121000  0.31214000  0.45915000  1.0
  C  C398  1  0.78153000  0.28106000  0.41421000  1.0
  C  C399  1  0.78148000  0.28127000  0.32718000  1.0
  C  C400  1  0.74947000  0.25021000  0.28620000  1.0
  C  C401  1  0.71804000  0.21870000  0.32738000  1.0
  C  C402  1  0.81445000  0.31272000  0.27632000  1.0
  C  C403  1  0.68611000  0.18580000  0.27714000  1.0
  C  C404  1  0.68701000  0.18457000  0.72550000  1.0
  C  C405  1  0.81540000  0.31226000  0.72712000  1.0
  C  C406  1  0.66556000  0.19350000  0.21644000  1.0
  C  C407  1  0.63636000  0.16299000  0.16871000  1.0
  C  C408  1  0.62682000  0.12363000  0.17951000  1.0
  C  C409  1  0.64790000  0.11615000  0.23949000  1.0
  C  C410  1  0.67709000  0.14662000  0.28688000  1.0
  C  C411  1  0.85346000  0.32099000  0.28482000  1.0
  C  C412  1  0.88385000  0.34950000  0.23611000  1.0
  C  C413  1  0.87641000  0.37061000  0.17612000  1.0
  C  C414  1  0.83720000  0.36179000  0.16661000  1.0
  C  C415  1  0.80681000  0.33326000  0.21554000  1.0
  C  C416  1  0.85462000  0.32149000  0.71673000  1.0
  C  C417  1  0.88520000  0.35042000  0.76457000  1.0
  C  C418  1  0.87791000  0.37117000  0.82599000  1.0
  C  C419  1  0.83835000  0.36109000  0.83766000  1.0
  C  C420  1  0.80780000  0.33219000  0.78939000  1.0
  C  C421  1  0.66666667  0.19192000  0.78706000  1.0
  C  C422  1  0.63699000  0.16108000  0.83330000  1.0
  C  C423  1  0.62657000  0.12151000  0.82004000  1.0
  C  C424  1  0.64764000  0.11444000  0.75916000  1.0
  C  C425  1  0.67740000  0.14532000  0.71349000  1.0
  C  C426  1  0.09137000  0.49528000  0.86695000  1.0
  C  C427  1  0.90980000  0.50748000  0.87190000  1.0
  C  C428  1  0.09151000  0.59554000  0.86719000  1.0
  C  C429  1  0.90946000  0.40193000  0.87165000  1.0
  C  C430  1  0.90958000  0.40262000  0.12710000  1.0
  C  C431  1  0.09136000  0.59519000  0.13185000  1.0
  C  C432  1  0.90978000  0.50709000  0.12723000  1.0
  C  C433  1  0.09114000  0.49582000  0.13264000  1.0
  C  C434  1  0.40502000  0.49604000  0.13229000  1.0
  C  C435  1  0.59845000  0.50768000  0.12788000  1.0
  C  C436  1  0.50544000  0.59591000  0.13315000  1.0
  C  C437  1  0.49274000  0.40229000  0.12804000  1.0
  C  C438  1  0.49170000  0.40139000  0.86995000  1.0
  C  C439  1  0.50491000  0.59549000  0.86753000  1.0
  C  C440  1  0.59790000  0.50713000  0.87273000  1.0
  C  C441  1  0.40407000  0.49518000  0.86551000  1.0
  C  C442  1  0.49416000  0.09060000  0.13060000  1.0
  C  C443  1  0.50669000  0.90908000  0.12672000  1.0
  C  C444  1  0.59484000  0.09039000  0.13054000  1.0
  C  C445  1  0.40161000  0.90895000  0.12464000  1.0
  C  C446  1  0.40236000  0.90834000  0.86969000  1.0
  C  C447  1  0.59583000  0.08992000  0.86532000  1.0
  C  C448  1  0.50692000  0.90825000  0.87224000  1.0
  C  C449  1  0.49482000  0.08981000  0.86488000  1.0
  O  O450  1  0.05554000  0.46858000  0.84831000  1.0
  O  O451  1  0.09945000  0.52105000  0.92462000  1.0
  O  O452  1  0.94566000  0.53420000  0.85381000  1.0
  O  O453  1  0.90158000  0.48080000  0.92763000  1.0
  O  O454  1  0.05571000  0.58648000  0.84864000  1.0
  O  O455  1  0.09955000  0.57784000  0.92485000  1.0
  O  O456  1  0.94532000  0.41096000  0.85343000  1.0
  O  O457  1  0.90141000  0.42057000  0.92734000  1.0
  O  O458  1  0.99967000  0.45964000  0.76860000  1.0
  O  O459  1  0.00136000  0.40402000  0.90499000  1.0
  O  O460  1  0.99968000  0.53849000  0.76893000  1.0
  O  O461  1  0.00359000  0.59796000  0.89626000  1.0
  O  O462  1  0.03573000  0.51755000  0.88168000  1.0
  O  O463  1  0.96605000  0.48281000  0.88265000  1.0
  O  O464  1  0.94535000  0.41168000  0.14572000  1.0
  O  O465  1  0.90138000  0.42084000  0.07091000  1.0
  O  O466  1  0.05554000  0.58616000  0.14994000  1.0
  O  O467  1  0.09951000  0.57765000  0.07407000  1.0
  O  O468  1  0.94565000  0.53383000  0.14515000  1.0
  O  O469  1  0.90154000  0.48053000  0.07119000  1.0
  O  O470  1  0.05527000  0.46928000  0.15126000  1.0
  O  O471  1  0.09936000  0.52123000  0.07426000  1.0
  O  O472  1  0.99981000  0.45029000  0.22731000  1.0
  O  O473  1  0.00093000  0.40397000  0.08168000  1.0
  O  O474  1  0.99787000  0.54440000  0.22863000  1.0
  O  O475  1  0.00174000  0.59694000  0.08793000  1.0
  O  O476  1  0.96642000  0.48292000  0.11533000  1.0
  O  O477  1  0.03520000  0.51721000  0.11662000  1.0
  O  O478  1  0.96460000  0.43264000  0.99843000  1.0
  O  O479  1  0.03539000  0.56638000  0.99892000  1.0
  O  O480  1  0.03546000  0.46845000  0.99861000  1.0
  O  O481  1  0.96489000  0.53166000  0.99878000  1.0
  O  O482  1  0.41391000  0.46923000  0.15118000  1.0
  O  O483  1  0.42279000  0.52186000  0.07493000  1.0
  O  O484  1  0.58947000  0.53442000  0.14649000  1.0
  O  O485  1  0.57986000  0.48098000  0.07242000  1.0
  O  O486  1  0.53207000  0.58684000  0.15203000  1.0
  O  O487  1  0.47981000  0.57848000  0.07541000  1.0
  O  O488  1  0.46593000  0.41134000  0.14589000  1.0
  O  O489  1  0.51963000  0.42095000  0.07277000  1.0
  O  O490  1  0.46035000  0.45974000  0.23087000  1.0
  O  O491  1  0.40332000  0.40472000  0.09332000  1.0
  O  O492  1  0.53987000  0.53879000  0.23117000  1.0
  O  O493  1  0.59549000  0.59834000  0.10377000  1.0
  O  O494  1  0.48289000  0.51810000  0.11839000  1.0
  O  O495  1  0.51751000  0.48319000  0.11733000  1.0
  O  O496  1  0.46554000  0.41143000  0.85296000  1.0
  O  O497  1  0.52108000  0.41977000  0.93169000  1.0
  O  O498  1  0.53139000  0.58613000  0.84872000  1.0
  O  O499  1  0.47944000  0.57815000  0.92565000  1.0
  O  O500  1  0.58869000  0.53367000  0.85379000  1.0
  O  O501  1  0.57970000  0.48077000  0.92903000  1.0
  O  O502  1  0.41374000  0.46870000  0.84866000  1.0
  O  O503  1  0.42189000  0.52377000  0.92877000  1.0
  O  O504  1  0.45588000  0.45373000  0.77113000  1.0
  O  O505  1  0.40356000  0.40470000  0.91479000  1.0
  O  O506  1  0.54858000  0.54860000  0.77167000  1.0
  O  O507  1  0.59637000  0.59692000  0.91505000  1.0
  O  O508  1  0.51733000  0.48312000  0.88462000  1.0
  O  O509  1  0.48292000  0.51792000  0.88332000  1.0
  O  O510  1  0.46884000  0.43321000  0.00075000  1.0
  O  O511  1  0.53223000  0.56698000  0.00118000  1.0
  O  O512  1  0.43399000  0.46927000  0.00066000  1.0
  O  O513  1  0.56777000  0.53205000  0.00125000  1.0
  O  O514  1  0.46782000  0.05457000  0.14841000  1.0
  O  O515  1  0.52269000  0.10150000  0.06714000  1.0
  O  O516  1  0.53335000  0.94488000  0.14513000  1.0
  O  O517  1  0.48021000  0.90073000  0.07057000  1.0
  O  O518  1  0.58571000  0.05470000  0.14975000  1.0
  O  O519  1  0.57752000  0.09846000  0.07217000  1.0
  O  O520  1  0.41056000  0.94476000  0.14274000  1.0
  O  O521  1  0.42015000  0.90068000  0.06927000  1.0
  O  O522  1  0.45899000  0.99922000  0.22739000  1.0
  O  O523  1  0.40380000  0.00084000  0.08913000  1.0
  O  O524  1  0.53722000  0.99915000  0.22890000  1.0
  O  O525  1  0.59726000  0.00256000  0.10344000  1.0
  O  O526  1  0.51714000  0.03520000  0.11452000  1.0
  O  O527  1  0.48221000  0.96529000  0.11452000  1.0
  O  O528  1  0.41147000  0.94416000  0.85119000  1.0
  O  O529  1  0.42075000  0.90033000  0.92594000  1.0
  O  O530  1  0.58673000  0.05406000  0.84736000  1.0
  O  O531  1  0.57799000  0.09809000  0.92224000  1.0
  O  O532  1  0.53382000  0.94400000  0.85397000  1.0
  O  O533  1  0.48019000  0.90030000  0.92761000  1.0
  O  O534  1  0.46864000  0.05401000  0.84541000  1.0
  O  O535  1  0.52029000  0.09812000  0.92307000  1.0
  O  O536  1  0.45144000  0.99624000  0.76802000  1.0
  O  O537  1  0.40422000  0.00022000  0.91101000  1.0
  O  O538  1  0.54529000  0.99573000  0.76923000  1.0
  O  O539  1  0.59697000  0.00028000  0.91152000  1.0
  O  O540  1  0.48309000  0.96523000  0.88164000  1.0
  O  O541  1  0.51760000  0.03404000  0.87937000  1.0
  O  O542  1  0.43251000  0.96377000  0.99761000  1.0
  O  O543  1  0.56633000  0.03421000  0.99861000  1.0
  O  O544  1  0.46858000  0.03455000  0.99704000  1.0
  O  O545  1  0.53140000  0.96384000  0.99956000  1.0
