# generated using pymatgen
data_Zr3H59(C57O8)2
_symmetry_space_group_name_H-M   'P 1'
_cell_length_a   27.92930000
_cell_length_b   27.92930000
_cell_length_c   27.92930000
_cell_angle_alpha   90.00000000
_cell_angle_beta   90.00000000
_cell_angle_gamma   90.00000000
_symmetry_Int_Tables_number   1
_chemical_formula_structural   Zr3H59(C57O8)2
_chemical_formula_sum   'Zr6 H118 C228 O32'
_cell_volume   21786.13311977
_cell_formula_units_Z   2
loop_
 _symmetry_equiv_pos_site_id
 _symmetry_equiv_pos_as_xyz
  1  'x, y, z'
loop_
 _atom_site_type_symbol
 _atom_site_label
 _atom_site_symmetry_multiplicity
 _atom_site_fract_x
 _atom_site_fract_y
 _atom_site_fract_z
 _atom_site_occupancy
  Zr  Zr0  1  0.99919000  0.00533000  0.91992000  1.0
  Zr  Zr1  1  0.07771000  0.00543000  0.99793000  1.0
  Zr  Zr2  1  0.92122000  0.00513000  0.99868000  1.0
  Zr  Zr3  1  0.99933000  0.08392000  0.99828000  1.0
  Zr  Zr4  1  0.99952000  0.92675000  0.99833000  1.0
  Zr  Zr5  1  0.99991000  0.00545000  0.07670000  1.0
  H  H6  1  0.62124000  0.00617000  0.54260000  1.0
  H  H7  1  0.62152000  0.00584000  0.45659000  1.0
  H  H8  1  0.37852000  0.99925000  0.54212000  1.0
  H  H9  1  0.37866000  0.99839000  0.45621000  1.0
  H  H10  1  0.49935000  0.00270000  0.66423000  1.0
  H  H11  1  0.50066000  0.00241000  0.33425000  1.0
  H  H12  1  0.62072000  0.54824000  0.99926000  1.0
  H  H13  1  0.62080000  0.46273000  0.99733000  1.0
  H  H14  1  0.37775000  0.54811000  0.99747000  1.0
  H  H15  1  0.37782000  0.46253000  0.99632000  1.0
  H  H16  1  0.49910000  0.67034000  0.99765000  1.0
  H  H17  1  0.49939000  0.34046000  0.99808000  1.0
  H  H18  1  0.00524000  0.46238000  0.37699000  1.0
  H  H19  1  0.00498000  0.54796000  0.37686000  1.0
  H  H20  1  0.00597000  0.46272000  0.61970000  1.0
  H  H21  1  0.00641000  0.54829000  0.61957000  1.0
  H  H22  1  0.00138000  0.34040000  0.49855000  1.0
  H  H23  1  0.00179000  0.67028000  0.49802000  1.0
  H  H24  1  0.06680000  0.07311000  0.93035000  1.0
  H  H25  1  0.93174000  0.93756000  0.93081000  1.0
  H  H26  1  0.93203000  0.07292000  0.06625000  1.0
  H  H27  1  0.06749000  0.93773000  0.06567000  1.0
  H  H28  1  0.35851000  0.93858000  0.27877000  1.0
  H  H29  1  0.42907000  0.93669000  0.33142000  1.0
  H  H30  1  0.38504000  0.07024000  0.39518000  1.0
  H  H31  1  0.31405000  0.07171000  0.34279000  1.0
  H  H32  1  0.26798000  0.00138000  0.15133000  1.0
  H  H33  1  0.20458000  0.00139000  0.09102000  1.0
  H  H34  1  0.09853000  0.01598000  0.20291000  1.0
  H  H35  1  0.16274000  0.01590000  0.26307000  1.0
  H  H36  1  0.65038000  0.92993000  0.29309000  1.0
  H  H37  1  0.57984000  0.92998000  0.34599000  1.0
  H  H38  1  0.60730000  0.07731000  0.38267000  1.0
  H  H39  1  0.67784000  0.07734000  0.32945000  1.0
  H  H40  1  0.76270000  0.93339000  0.18353000  1.0
  H  H41  1  0.82692000  0.93320000  0.12298000  1.0
  H  H42  1  0.87374000  0.07176000  0.17222000  1.0
  H  H43  1  0.80868000  0.07253000  0.23193000  1.0
  H  H44  1  0.65059000  0.93369000  0.70661000  1.0
  H  H45  1  0.57992000  0.93197000  0.65392000  1.0
  H  H46  1  0.60529000  0.07911000  0.61495000  1.0
  H  H47  1  0.67595000  0.08091000  0.66795000  1.0
  H  H48  1  0.76368000  0.93760000  0.81220000  1.0
  H  H49  1  0.82783000  0.93720000  0.87272000  1.0
  H  H50  1  0.87070000  0.07867000  0.82837000  1.0
  H  H51  1  0.80564000  0.07957000  0.76855000  1.0
  H  H52  1  0.33698000  0.92320000  0.68670000  1.0
  H  H53  1  0.40779000  0.92435000  0.63388000  1.0
  H  H54  1  0.40505000  0.07858000  0.63352000  1.0
  H  H55  1  0.33433000  0.07749000  0.68634000  1.0
  H  H56  1  0.20630000  0.92410000  0.78317000  1.0
  H  H57  1  0.14116000  0.92545000  0.84289000  1.0
  H  H58  1  0.15622000  0.07846000  0.85580000  1.0
  H  H59  1  0.22092000  0.07723000  0.79578000  1.0
  H  H60  1  0.31488000  0.34783000  0.06926000  1.0
  H  H61  1  0.38620000  0.39985000  0.06757000  1.0
  H  H62  1  0.42631000  0.34011000  0.93098000  1.0
  H  H63  1  0.35542000  0.28793000  0.93297000  1.0
  H  H64  1  0.16288000  0.26881000  0.02297000  1.0
  H  H65  1  0.09874000  0.20850000  0.02164000  1.0
  H  H66  1  0.20214000  0.10066000  0.98107000  1.0
  H  H67  1  0.26550000  0.16105000  0.98248000  1.0
  H  H68  1  0.35405000  0.72093000  0.06352000  1.0
  H  H69  1  0.42495000  0.66875000  0.06537000  1.0
  H  H70  1  0.38718000  0.61243000  0.92669000  1.0
  H  H71  1  0.31590000  0.66454000  0.92506000  1.0
  H  H72  1  0.26409000  0.84809000  0.02019000  1.0
  H  H73  1  0.20069000  0.90857000  0.02162000  1.0
  H  H74  1  0.10020000  0.80423000  0.96719000  1.0
  H  H75  1  0.16432000  0.74383000  0.96577000  1.0
  H  H76  1  0.64207000  0.72150000  0.06692000  1.0
  H  H77  1  0.57107000  0.66944000  0.06667000  1.0
  H  H78  1  0.61341000  0.61228000  0.92964000  1.0
  H  H79  1  0.68485000  0.66416000  0.93022000  1.0
  H  H80  1  0.73168000  0.85158000  0.00121000  1.0
  H  H81  1  0.79494000  0.91196000  0.00253000  1.0
  H  H82  1  0.90169000  0.79977000  0.99971000  1.0
  H  H83  1  0.83758000  0.73954000  0.99845000  1.0
  H  H84  1  0.64278000  0.28971000  0.92914000  1.0
  H  H85  1  0.57184000  0.34186000  0.92903000  1.0
  H  H86  1  0.61304000  0.39830000  0.06670000  1.0
  H  H87  1  0.68442000  0.34631000  0.06650000  1.0
  H  H88  1  0.73142000  0.15895000  0.99634000  1.0
  H  H89  1  0.79461000  0.09845000  0.99531000  1.0
  H  H90  1  0.90149000  0.21052000  0.99721000  1.0
  H  H91  1  0.83750000  0.27084000  0.99821000  1.0
  H  H92  1  0.93433000  0.34717000  0.31235000  1.0
  H  H93  1  0.93398000  0.39930000  0.38360000  1.0
  H  H94  1  0.06988000  0.34033000  0.42712000  1.0
  H  H95  1  0.06990000  0.28804000  0.35628000  1.0
  H  H96  1  0.97771000  0.26796000  0.16308000  1.0
  H  H97  1  0.97815000  0.20787000  0.09876000  1.0
  H  H98  1  0.02879000  0.10165000  0.19930000  1.0
  H  H99  1  0.02829000  0.16190000  0.26297000  1.0
  H  H100  1  0.93111000  0.34955000  0.68401000  1.0
  H  H101  1  0.93297000  0.40152000  0.61269000  1.0
  H  H102  1  0.06766000  0.33877000  0.57073000  1.0
  H  H103  1  0.06546000  0.28663000  0.64163000  1.0
  H  H104  1  0.97053000  0.26777000  0.83387000  1.0
  H  H105  1  0.97102000  0.20730000  0.89793000  1.0
  H  H106  1  0.02095000  0.10151000  0.79659000  1.0
  H  H107  1  0.02043000  0.16204000  0.73329000  1.0
  H  H108  1  0.93527000  0.66291000  0.68472000  1.0
  H  H109  1  0.93492000  0.61079000  0.61347000  1.0
  H  H110  1  0.06998000  0.67100000  0.56905000  1.0
  H  H111  1  0.06997000  0.72331000  0.63987000  1.0
  H  H112  1  0.97641000  0.74307000  0.83313000  1.0
  H  H113  1  0.97644000  0.80320000  0.89744000  1.0
  H  H114  1  0.02997000  0.90879000  0.79778000  1.0
  H  H115  1  0.02990000  0.84851000  0.73410000  1.0
  H  H116  1  0.93058000  0.66223000  0.31331000  1.0
  H  H117  1  0.93234000  0.61020000  0.38461000  1.0
  H  H118  1  0.06843000  0.67077000  0.42520000  1.0
  H  H119  1  0.06638000  0.72292000  0.35429000  1.0
  H  H120  1  0.97071000  0.74314000  0.16286000  1.0
  H  H121  1  0.97146000  0.80359000  0.09880000  1.0
  H  H122  1  0.02238000  0.90906000  0.19998000  1.0
  H  H123  1  0.02159000  0.84853000  0.26330000  1.0
  C  C124  1  0.54334000  0.00484000  0.60106000  1.0
  C  C125  1  0.49952000  0.00315000  0.62539000  1.0
  C  C126  1  0.45589000  0.00241000  0.60077000  1.0
  C  C127  1  0.45576000  0.00290000  0.55005000  1.0
  C  C128  1  0.49985000  0.00461000  0.52472000  1.0
  C  C129  1  0.54381000  0.00557000  0.55030000  1.0
  C  C130  1  0.58701000  0.00612000  0.52444000  1.0
  C  C131  1  0.58718000  0.00594000  0.47453000  1.0
  C  C132  1  0.54415000  0.00535000  0.44839000  1.0
  C  C133  1  0.49999000  0.00473000  0.47369000  1.0
  C  C134  1  0.41276000  0.00111000  0.52404000  1.0
  C  C135  1  0.41287000  0.00101000  0.47414000  1.0
  C  C136  1  0.45598000  0.00338000  0.44814000  1.0
  C  C137  1  0.45641000  0.00305000  0.39730000  1.0
  C  C138  1  0.50039000  0.00286000  0.37309000  1.0
  C  C139  1  0.54408000  0.00415000  0.39765000  1.0
  C  C140  1  0.54297000  0.60715000  0.99764000  1.0
  C  C141  1  0.49915000  0.63149000  0.99767000  1.0
  C  C142  1  0.45540000  0.60705000  0.99679000  1.0
  C  C143  1  0.45517000  0.55630000  0.99677000  1.0
  C  C144  1  0.49925000  0.53090000  0.99729000  1.0
  C  C145  1  0.54330000  0.55637000  0.99744000  1.0
  C  C146  1  0.58640000  0.53038000  0.99828000  1.0
  C  C147  1  0.58644000  0.48055000  0.99794000  1.0
  C  C148  1  0.54337000  0.45449000  0.99837000  1.0
  C  C149  1  0.49929000  0.47989000  0.99810000  1.0
  C  C150  1  0.41210000  0.53026000  0.99713000  1.0
  C  C151  1  0.41214000  0.48042000  0.99722000  1.0
  C  C152  1  0.45524000  0.45443000  0.99823000  1.0
  C  C153  1  0.45554000  0.40367000  0.99843000  1.0
  C  C154  1  0.49936000  0.37931000  0.99792000  1.0
  C  C155  1  0.54313000  0.40372000  0.99817000  1.0
  C  C156  1  0.00139000  0.40355000  0.45466000  1.0
  C  C157  1  0.00150000  0.37925000  0.49850000  1.0
  C  C158  1  0.00106000  0.40370000  0.54227000  1.0
  C  C159  1  0.00104000  0.45447000  0.54244000  1.0
  C  C160  1  0.00045000  0.47983000  0.49834000  1.0
  C  C161  1  0.00099000  0.45433000  0.45431000  1.0
  C  C162  1  0.00288000  0.48029000  0.41123000  1.0
  C  C163  1  0.00274000  0.53013000  0.41115000  1.0
  C  C164  1  0.00085000  0.55621000  0.45416000  1.0
  C  C165  1  0.00051000  0.53085000  0.49827000  1.0
  C  C166  1  0.00341000  0.48055000  0.58543000  1.0
  C  C167  1  0.00367000  0.53039000  0.58535000  1.0
  C  C168  1  0.00142000  0.55636000  0.54229000  1.0
  C  C169  1  0.00186000  0.60713000  0.54195000  1.0
  C  C170  1  0.00181000  0.63143000  0.49809000  1.0
  C  C171  1  0.00108000  0.60697000  0.45434000  1.0
  C  C172  1  0.89152000  0.00758000  0.89156000  1.0
  C  C173  1  0.10659000  0.00286000  0.89054000  1.0
  C  C174  1  0.99660000  0.11261000  0.89049000  1.0
  C  C175  1  0.00179000  0.89787000  0.89068000  1.0
  C  C176  1  0.10783000  0.00792000  0.10510000  1.0
  C  C177  1  0.89255000  0.00290000  0.10626000  1.0
  C  C178  1  0.10709000  0.11276000  0.00038000  1.0
  C  C179  1  0.10725000  0.89813000  0.99537000  1.0
  C  C180  1  0.89183000  0.89781000  0.00089000  1.0
  C  C181  1  0.89154000  0.11250000  0.99650000  1.0
  C  C182  1  0.00232000  0.11288000  0.10589000  1.0
  C  C183  1  0.99757000  0.89812000  0.10616000  1.0
  C  C184  1  0.33111000  0.00510000  0.30727000  1.0
  C  C185  1  0.36378000  0.96712000  0.30451000  1.0
  C  C186  1  0.40395000  0.96608000  0.33447000  1.0
  C  C187  1  0.41196000  0.00293000  0.36779000  1.0
  C  C188  1  0.37911000  0.04101000  0.37040000  1.0
  C  C189  1  0.33881000  0.04195000  0.34047000  1.0
  C  C190  1  0.29082000  0.00686000  0.27478000  1.0
  C  C191  1  0.25797000  0.00791000  0.24654000  1.0
  C  C192  1  0.21991000  0.00865000  0.21144000  1.0
  C  C193  1  0.23106000  0.00471000  0.16276000  1.0
  C  C194  1  0.19467000  0.00477000  0.12835000  1.0
  C  C195  1  0.14626000  0.00869000  0.14200000  1.0
  C  C196  1  0.13532000  0.01280000  0.19108000  1.0
  C  C197  1  0.17191000  0.01281000  0.22551000  1.0
  C  C198  1  0.66921000  0.00358000  0.30755000  1.0
  C  C199  1  0.64143000  0.96211000  0.31281000  1.0
  C  C200  1  0.60134000  0.96211000  0.34295000  1.0
  C  C201  1  0.58870000  0.00348000  0.36859000  1.0
  C  C202  1  0.61687000  0.04488000  0.36369000  1.0
  C  C203  1  0.65690000  0.04491000  0.33333333  1.0
  C  C204  1  0.70930000  0.00389000  0.27464000  1.0
  C  C205  1  0.74227000  0.00366000  0.24646000  1.0
  C  C206  1  0.78112000  0.00295000  0.21210000  1.0
  C  C207  1  0.78675000  0.96373000  0.18122000  1.0
  C  C208  1  0.82327000  0.96361000  0.14679000  1.0
  C  C209  1  0.85512000  0.00233000  0.14344000  1.0
  C  C210  1  0.84990000  0.04126000  0.17481000  1.0
  C  C211  1  0.81284000  0.04175000  0.20870000  1.0
  C  C212  1  0.66832000  0.00737000  0.69093000  1.0
  C  C213  1  0.64111000  0.96545000  0.68645000  1.0
  C  C214  1  0.60096000  0.96445000  0.65647000  1.0
  C  C215  1  0.58775000  0.00527000  0.63029000  1.0
  C  C216  1  0.61533000  0.04713000  0.63444000  1.0
  C  C217  1  0.65542000  0.04817000  0.66463000  1.0
  C  C218  1  0.70845000  0.00869000  0.72362000  1.0
  C  C219  1  0.74142000  0.00905000  0.75171000  1.0
  C  C220  1  0.78012000  0.00859000  0.78609000  1.0
  C  C221  1  0.78680000  0.96856000  0.81561000  1.0
  C  C222  1  0.82323000  0.96834000  0.85003000  1.0
  C  C223  1  0.85386000  0.00786000  0.85477000  1.0
  C  C224  1  0.84763000  0.04770000  0.82478000  1.0
  C  C225  1  0.81064000  0.04821000  0.79083000  1.0
  C  C226  1  0.33055000  0.00027000  0.69023000  1.0
  C  C227  1  0.35139000  0.95722000  0.67488000  1.0
  C  C228  1  0.39158000  0.95785000  0.64479000  1.0
  C  C229  1  0.41127000  0.00155000  0.62963000  1.0
  C  C230  1  0.39003000  0.04457000  0.64457000  1.0
  C  C231  1  0.34988000  0.04393000  0.67467000  1.0
  C  C232  1  0.29040000  0.99981000  0.72306000  1.0
  C  C233  1  0.25729000  0.99990000  0.75106000  1.0
  C  C234  1  0.21820000  0.00060000  0.78513000  1.0
  C  C235  1  0.19528000  0.95795000  0.79858000  1.0
  C  C236  1  0.15823000  0.95870000  0.83249000  1.0
  C  C237  1  0.14398000  0.00208000  0.85345000  1.0
  C  C238  1  0.16680000  0.04471000  0.83987000  1.0
  C  C239  1  0.20360000  0.04399000  0.80577000  1.0
  C  C240  1  0.32999000  0.31447000  0.00106000  1.0
  C  C241  1  0.33886000  0.34634000  0.03881000  1.0
  C  C242  1  0.37933000  0.37600000  0.03778000  1.0
  C  C243  1  0.41110000  0.37436000  0.99876000  1.0
  C  C244  1  0.40196000  0.34233000  0.96108000  1.0
  C  C245  1  0.36163000  0.31267000  0.96219000  1.0
  C  C246  1  0.28956000  0.28230000  0.00263000  1.0
  C  C247  1  0.25667000  0.25419000  0.00315000  1.0
  C  C248  1  0.21869000  0.21912000  0.00288000  1.0
  C  C249  1  0.17147000  0.23212000  0.01379000  1.0
  C  C250  1  0.13493000  0.19768000  0.01289000  1.0
  C  C251  1  0.14528000  0.14971000  0.00130000  1.0
  C  C252  1  0.19289000  0.13712000  0.99050000  1.0
  C  C253  1  0.22918000  0.17156000  0.99119000  1.0
  C  C254  1  0.32983000  0.69618000  0.99432000  1.0
  C  C255  1  0.36078000  0.69695000  0.03378000  1.0
  C  C256  1  0.40111000  0.66729000  0.03482000  1.0
  C  C257  1  0.41091000  0.63626000  0.99649000  1.0
  C  C258  1  0.37979000  0.63554000  0.95693000  1.0
  C  C259  1  0.33935000  0.66525000  0.95595000  1.0
  C  C260  1  0.28949000  0.72847000  0.99282000  1.0
  C  C261  1  0.25666000  0.75666000  0.99239000  1.0
  C  C262  1  0.21871000  0.79177000  0.99282000  1.0
  C  C263  1  0.22842000  0.83838000  0.00842000  1.0
  C  C264  1  0.19217000  0.87287000  0.00908000  1.0
  C  C265  1  0.14539000  0.86121000  0.99442000  1.0
  C  C266  1  0.13576000  0.81420000  0.97900000  1.0
  C  C267  1  0.17228000  0.77975000  0.97804000  1.0
  C  C268  1  0.66866000  0.69619000  0.99881000  1.0
  C  C269  1  0.63633000  0.69733000  0.03713000  1.0
  C  C270  1  0.59594000  0.66775000  0.03696000  1.0
  C  C271  1  0.58740000  0.63647000  0.99852000  1.0
  C  C272  1  0.61981000  0.63554000  0.96001000  1.0
  C  C273  1  0.66035000  0.66511000  0.96027000  1.0
  C  C274  1  0.70917000  0.72830000  0.99853000  1.0
  C  C275  1  0.74212000  0.75635000  0.99885000  1.0
  C  C276  1  0.78015000  0.79136000  0.99964000  1.0
  C  C277  1  0.76875000  0.84011000  0.00092000  1.0
  C  C278  1  0.80504000  0.87453000  0.00173000  1.0
  C  C279  1  0.85358000  0.86082000  0.00124000  1.0
  C  C280  1  0.86478000  0.81164000  0.00017000  1.0
  C  C281  1  0.82827000  0.77718000  0.99937000  1.0
  C  C282  1  0.66877000  0.31462000  0.99762000  1.0
  C  C283  1  0.63681000  0.31375000  0.95900000  1.0
  C  C284  1  0.59645000  0.34338000  0.95896000  1.0
  C  C285  1  0.58760000  0.37447000  0.99749000  1.0
  C  C286  1  0.61969000  0.37518000  0.03627000  1.0
  C  C287  1  0.66019000  0.34555000  0.03622000  1.0
  C  C288  1  0.70918000  0.28237000  0.99814000  1.0
  C  C289  1  0.74203000  0.25421000  0.99802000  1.0
  C  C290  1  0.77998000  0.21911000  0.99746000  1.0
  C  C291  1  0.76850000  0.17036000  0.99652000  1.0
  C  C292  1  0.80475000  0.13586000  0.99588000  1.0
  C  C293  1  0.85331000  0.14952000  0.99618000  1.0
  C  C294  1  0.86457000  0.19868000  0.99692000  1.0
  C  C295  1  0.82813000  0.23321000  0.99756000  1.0
  C  C296  1  0.00230000  0.31416000  0.32917000  1.0
  C  C297  1  0.96418000  0.34586000  0.33708000  1.0
  C  C298  1  0.96406000  0.37559000  0.37751000  1.0
  C  C299  1  0.00228000  0.37419000  0.41024000  1.0
  C  C300  1  0.04035000  0.34235000  0.40205000  1.0
  C  C301  1  0.04039000  0.31263000  0.36175000  1.0
  C  C302  1  0.00186000  0.28195000  0.28873000  1.0
  C  C303  1  0.00208000  0.25392000  0.25577000  1.0
  C  C304  1  0.00288000  0.21911000  0.21754000  1.0
  C  C305  1  0.98908000  0.23173000  0.17099000  1.0
  C  C306  1  0.98950000  0.19743000  0.13434000  1.0
  C  C307  1  0.00342000  0.14993000  0.14392000  1.0
  C  C308  1  0.01749000  0.13775000  0.19076000  1.0
  C  C309  1  0.01732000  0.17210000  0.22718000  1.0
  C  C310  1  0.99831000  0.31465000  0.66796000  1.0
  C  C311  1  0.96119000  0.34739000  0.65962000  1.0
  C  C312  1  0.96233000  0.37703000  0.61915000  1.0
  C  C313  1  0.00083000  0.37450000  0.58681000  1.0
  C  C314  1  0.03794000  0.34166000  0.59547000  1.0
  C  C315  1  0.03671000  0.31202000  0.63582000  1.0
  C  C316  1  0.99645000  0.28241000  0.70833000  1.0
  C  C317  1  0.99558000  0.25425000  0.74117000  1.0
  C  C318  1  0.99540000  0.21911000  0.77908000  1.0
  C  C319  1  0.98159000  0.23150000  0.82571000  1.0
  C  C320  1  0.98200000  0.19699000  0.86220000  1.0
  C  C321  1  0.99594000  0.14956000  0.85235000  1.0
  C  C322  1  0.00959000  0.13754000  0.80534000  1.0
  C  C323  1  0.00944000  0.17206000  0.76913000  1.0
  C  C324  1  0.00281000  0.69655000  0.66744000  1.0
  C  C325  1  0.96495000  0.66449000  0.65979000  1.0
  C  C326  1  0.96483000  0.63477000  0.61936000  1.0
  C  C327  1  0.00281000  0.63651000  0.58637000  1.0
  C  C328  1  0.04064000  0.66871000  0.59431000  1.0
  C  C329  1  0.04066000  0.69844000  0.63460000  1.0
  C  C330  1  0.00231000  0.72878000  0.70787000  1.0
  C  C331  1  0.00243000  0.75681000  0.74084000  1.0
  C  C332  1  0.00306000  0.79161000  0.77908000  1.0
  C  C333  1  0.98833000  0.77917000  0.82541000  1.0
  C  C334  1  0.98851000  0.81348000  0.86205000  1.0
  C  C335  1  0.00307000  0.86082000  0.85267000  1.0
  C  C336  1  0.01809000  0.87282000  0.80609000  1.0
  C  C337  1  0.01819000  0.83846000  0.76969000  1.0
  C  C338  1  0.99850000  0.69602000  0.32866000  1.0
  C  C339  1  0.96094000  0.66389000  0.33739000  1.0
  C  C340  1  0.96201000  0.63422000  0.37784000  1.0
  C  C341  1  0.00086000  0.63616000  0.40980000  1.0
  C  C342  1  0.03842000  0.66837000  0.40076000  1.0
  C  C343  1  0.03728000  0.69801000  0.36041000  1.0
  C  C344  1  0.99677000  0.72830000  0.28832000  1.0
  C  C345  1  0.99605000  0.75649000  0.25549000  1.0
  C  C346  1  0.99607000  0.79163000  0.21758000  1.0
  C  C347  1  0.98207000  0.77933000  0.17098000  1.0
  C  C348  1  0.98264000  0.81382000  0.13449000  1.0
  C  C349  1  0.99692000  0.86116000  0.14430000  1.0
  C  C350  1  0.01077000  0.87310000  0.19126000  1.0
  C  C351  1  0.01047000  0.83858000  0.22749000  1.0
  O  O352  1  0.87784000  0.00611000  0.93630000  1.0
  O  O353  1  0.12063000  0.00397000  0.93517000  1.0
  O  O354  1  0.99768000  0.06780000  0.87695000  1.0
  O  O355  1  0.00104000  0.94269000  0.87706000  1.0
  O  O356  1  0.00074000  0.88383000  0.93542000  1.0
  O  O357  1  0.99713000  0.12670000  0.93524000  1.0
  O  O358  1  0.06187000  0.00346000  0.87663000  1.0
  O  O359  1  0.93613000  0.00754000  0.87727000  1.0
  O  O360  1  0.04690000  0.95770000  0.95052000  1.0
  O  O361  1  0.95160000  0.05289000  0.95091000  1.0
  O  O362  1  0.04633000  0.05263000  0.95094000  1.0
  O  O363  1  0.95226000  0.95806000  0.95132000  1.0
  O  O364  1  0.12107000  0.00707000  0.06019000  1.0
  O  O365  1  0.87850000  0.00282000  0.06159000  1.0
  O  O366  1  0.06233000  0.12681000  0.99994000  1.0
  O  O367  1  0.06253000  0.88399000  0.99609000  1.0
  O  O368  1  0.93658000  0.88382000  0.00004000  1.0
  O  O369  1  0.93628000  0.12663000  0.99699000  1.0
  O  O370  1  0.00202000  0.06807000  0.11951000  1.0
  O  O371  1  0.99868000  0.94295000  0.11969000  1.0
  O  O372  1  0.00088000  0.12689000  0.06115000  1.0
  O  O373  1  0.99787000  0.88401000  0.06142000  1.0
  O  O374  1  0.12062000  0.06795000  0.99928000  1.0
  O  O375  1  0.87816000  0.06762000  0.99729000  1.0
  O  O376  1  0.87833000  0.94265000  0.00036000  1.0
  O  O377  1  0.12075000  0.94296000  0.99634000  1.0
  O  O378  1  0.06313000  0.00721000  0.11931000  1.0
  O  O379  1  0.93728000  0.00451000  0.12011000  1.0
  O  O380  1  0.95221000  0.95763000  0.04623000  1.0
  O  O381  1  0.04724000  0.05312000  0.04565000  1.0
  O  O382  1  0.95250000  0.05247000  0.04565000  1.0
  O  O383  1  0.04685000  0.95819000  0.04525000  1.0
