# generated using pymatgen
data_Cd3H12C24N10Cl
_symmetry_space_group_name_H-M   'P 1'
_cell_length_a   19.38300000
_cell_length_b   21.59900000
_cell_length_c   21.59900000
_cell_angle_alpha   90.00000000
_cell_angle_beta   90.00000000
_cell_angle_gamma   90.00000000
_symmetry_Int_Tables_number   1
_chemical_formula_structural   Cd3H12C24N10Cl
_chemical_formula_sum   'Cd12 H48 C96 N40 Cl4'
_cell_volume   9042.49515378
_cell_formula_units_Z   4
loop_
 _symmetry_equiv_pos_site_id
 _symmetry_equiv_pos_as_xyz
  1  'x, y, z'
loop_
 _atom_site_type_symbol
 _atom_site_label
 _atom_site_symmetry_multiplicity
 _atom_site_fract_x
 _atom_site_fract_y
 _atom_site_fract_z
 _atom_site_occupancy
  Cd  Cd0  1  0.00000000  0.09140000  0.90860000  1.0
  Cd  Cd1  1  0.00000000  0.90860000  0.09140000  1.0
  Cd  Cd2  1  0.86730000  0.17320000  0.82680000  1.0
  Cd  Cd3  1  0.86730000  0.17320000  0.17320000  1.0
  Cd  Cd4  1  0.00000000  0.09140000  0.09140000  1.0
  Cd  Cd5  1  0.00000000  0.90860000  0.90860000  1.0
  Cd  Cd6  1  0.50000000  0.50000000  0.96239000  1.0
  Cd  Cd7  1  0.50000000  0.50000000  0.03761000  1.0
  Cd  Cd8  1  0.50000000  0.96239000  0.50000000  1.0
  Cd  Cd9  1  0.50000000  0.03761000  0.50000000  1.0
  Cd  Cd10  1  0.86730000  0.82680000  0.82680000  1.0
  Cd  Cd11  1  0.86730000  0.82680000  0.17320000  1.0
  H  H12  1  0.75640000  0.00000000  0.55660000  1.0
  H  H13  1  0.77610000  0.09300000  0.25520000  1.0
  H  H14  1  0.31010000  0.09310000  0.32980000  1.0
  H  H15  1  0.68990000  0.90690000  0.67020000  1.0
  H  H16  1  0.68990000  0.09310000  0.32980000  1.0
  H  H17  1  0.31010000  0.67020000  0.09310000  1.0
  H  H18  1  0.22390000  0.74480000  0.90700000  1.0
  H  H19  1  0.24360000  0.00000000  0.55660000  1.0
  H  H20  1  0.68990000  0.67020000  0.09310000  1.0
  H  H21  1  0.77610000  0.25520000  0.09300000  1.0
  H  H22  1  0.43670000  0.73150000  0.00000000  1.0
  H  H23  1  0.77610000  0.90700000  0.25520000  1.0
  H  H24  1  0.22390000  0.09300000  0.74480000  1.0
  H  H25  1  0.77610000  0.90700000  0.74480000  1.0
  H  H26  1  0.75640000  0.00000000  0.44340000  1.0
  H  H27  1  0.68990000  0.09310000  0.67020000  1.0
  H  H28  1  0.31010000  0.09310000  0.67020000  1.0
  H  H29  1  0.75640000  0.44340000  0.00000000  1.0
  H  H30  1  0.77610000  0.25520000  0.90700000  1.0
  H  H31  1  0.43670000  0.00000000  0.26850000  1.0
  H  H32  1  0.31010000  0.90690000  0.67020000  1.0
  H  H33  1  0.31010000  0.90690000  0.32980000  1.0
  H  H34  1  0.43670000  0.00000000  0.73150000  1.0
  H  H35  1  0.22390000  0.74480000  0.09300000  1.0
  H  H36  1  0.56330000  0.00000000  0.73150000  1.0
  H  H37  1  0.68990000  0.90690000  0.32980000  1.0
  H  H38  1  0.31010000  0.32980000  0.90690000  1.0
  H  H39  1  0.22390000  0.90700000  0.74480000  1.0
  H  H40  1  0.22390000  0.90700000  0.25520000  1.0
  H  H41  1  0.68990000  0.32980000  0.90690000  1.0
  H  H42  1  0.22390000  0.25520000  0.09300000  1.0
  H  H43  1  0.56330000  0.26850000  0.00000000  1.0
  H  H44  1  0.77610000  0.09300000  0.74480000  1.0
  H  H45  1  0.56330000  0.00000000  0.26850000  1.0
  H  H46  1  0.77610000  0.74480000  0.09300000  1.0
  H  H47  1  0.22390000  0.25520000  0.90700000  1.0
  H  H48  1  0.43670000  0.26850000  0.00000000  1.0
  H  H49  1  0.31010000  0.32980000  0.09310000  1.0
  H  H50  1  0.24360000  0.44340000  0.00000000  1.0
  H  H51  1  0.68990000  0.32980000  0.09310000  1.0
  H  H52  1  0.24360000  0.55660000  0.00000000  1.0
  H  H53  1  0.22390000  0.09300000  0.25520000  1.0
  H  H54  1  0.24360000  0.00000000  0.44340000  1.0
  H  H55  1  0.68990000  0.67020000  0.90690000  1.0
  H  H56  1  0.75640000  0.55660000  0.00000000  1.0
  H  H57  1  0.77610000  0.74480000  0.90700000  1.0
  H  H58  1  0.56330000  0.73150000  0.00000000  1.0
  H  H59  1  0.31010000  0.67020000  0.90690000  1.0
  C  C60  1  0.71770000  0.46870000  0.00000000  1.0
  C  C61  1  0.84080000  0.80030000  0.00000000  1.0
  C  C62  1  0.46510000  0.00000000  0.30320000  1.0
  C  C63  1  0.29270000  0.31500000  0.05578000  1.0
  C  C64  1  0.78480000  0.00000000  0.24816000  1.0
  C  C65  1  0.15920000  0.00000000  0.19970000  1.0
  C  C66  1  0.21520000  0.00000000  0.24816000  1.0
  C  C67  1  0.24110000  0.94424000  0.27030000  1.0
  C  C68  1  0.55550000  0.63760000  0.00000000  1.0
  C  C69  1  0.75890000  0.05576000  0.72970000  1.0
  C  C70  1  0.21520000  0.75184000  0.00000000  1.0
  C  C71  1  0.78480000  0.24816000  0.00000000  1.0
  C  C72  1  0.29270000  0.94422000  0.31500000  1.0
  C  C73  1  0.29270000  0.68500000  0.05578000  1.0
  C  C74  1  0.46510000  0.30320000  0.00000000  1.0
  C  C75  1  0.62480000  0.61280000  0.00000000  1.0
  C  C76  1  0.71770000  0.00000000  0.46870000  1.0
  C  C77  1  0.75890000  0.27030000  0.94424000  1.0
  C  C78  1  0.75890000  0.72970000  0.94424000  1.0
  C  C79  1  0.28230000  0.46870000  0.00000000  1.0
  C  C80  1  0.34820000  0.55040000  0.00000000  1.0
  C  C81  1  0.65180000  0.55040000  0.00000000  1.0
  C  C82  1  0.29270000  0.31500000  0.94422000  1.0
  C  C83  1  0.29270000  0.05578000  0.31500000  1.0
  C  C84  1  0.28230000  0.53130000  0.00000000  1.0
  C  C85  1  0.46510000  0.69680000  0.00000000  1.0
  C  C86  1  0.34820000  0.00000000  0.44960000  1.0
  C  C87  1  0.78480000  0.75184000  0.00000000  1.0
  C  C88  1  0.65180000  0.44960000  0.00000000  1.0
  C  C89  1  0.31830000  0.00000000  0.33750000  1.0
  C  C90  1  0.21520000  0.24816000  0.00000000  1.0
  C  C91  1  0.84080000  0.00000000  0.80030000  1.0
  C  C92  1  0.75890000  0.94424000  0.27030000  1.0
  C  C93  1  0.70730000  0.68500000  0.94422000  1.0
  C  C94  1  0.37520000  0.00000000  0.61280000  1.0
  C  C95  1  0.37520000  0.61280000  0.00000000  1.0
  C  C96  1  0.24110000  0.05576000  0.72970000  1.0
  C  C97  1  0.24110000  0.05576000  0.27030000  1.0
  C  C98  1  0.68170000  0.33750000  0.00000000  1.0
  C  C99  1  0.75890000  0.72970000  0.05576000  1.0
  C  C100  1  0.44450000  0.00000000  0.36240000  1.0
  C  C101  1  0.75890000  0.27030000  0.05576000  1.0
  C  C102  1  0.68170000  0.66250000  0.00000000  1.0
  C  C103  1  0.62480000  0.00000000  0.61280000  1.0
  C  C104  1  0.70730000  0.94422000  0.68500000  1.0
  C  C105  1  0.55550000  0.00000000  0.36240000  1.0
  C  C106  1  0.68170000  0.00000000  0.33750000  1.0
  C  C107  1  0.21520000  0.00000000  0.75184000  1.0
  C  C108  1  0.78480000  0.00000000  0.75184000  1.0
  C  C109  1  0.53490000  0.00000000  0.69680000  1.0
  C  C110  1  0.70730000  0.31500000  0.05578000  1.0
  C  C111  1  0.53490000  0.00000000  0.30320000  1.0
  C  C112  1  0.44450000  0.36240000  0.00000000  1.0
  C  C113  1  0.62480000  0.00000000  0.38720000  1.0
  C  C114  1  0.29270000  0.94422000  0.68500000  1.0
  C  C115  1  0.29270000  0.68500000  0.94422000  1.0
  C  C116  1  0.75890000  0.05576000  0.27030000  1.0
  C  C117  1  0.65180000  0.00000000  0.44960000  1.0
  C  C118  1  0.15920000  0.00000000  0.80030000  1.0
  C  C119  1  0.55550000  0.00000000  0.63760000  1.0
  C  C120  1  0.71770000  0.00000000  0.53130000  1.0
  C  C121  1  0.24110000  0.94424000  0.72970000  1.0
  C  C122  1  0.70730000  0.05578000  0.68500000  1.0
  C  C123  1  0.53490000  0.69680000  0.00000000  1.0
  C  C124  1  0.70730000  0.05578000  0.31500000  1.0
  C  C125  1  0.15920000  0.19970000  0.00000000  1.0
  C  C126  1  0.24110000  0.72970000  0.05576000  1.0
  C  C127  1  0.44450000  0.63760000  0.00000000  1.0
  C  C128  1  0.24110000  0.27030000  0.05576000  1.0
  C  C129  1  0.37520000  0.00000000  0.38720000  1.0
  C  C130  1  0.37520000  0.38720000  0.00000000  1.0
  C  C131  1  0.28230000  0.00000000  0.53130000  1.0
  C  C132  1  0.28230000  0.00000000  0.46870000  1.0
  C  C133  1  0.31830000  0.00000000  0.66250000  1.0
  C  C134  1  0.46510000  0.00000000  0.69680000  1.0
  C  C135  1  0.53490000  0.30320000  0.00000000  1.0
  C  C136  1  0.55550000  0.36240000  0.00000000  1.0
  C  C137  1  0.70730000  0.68500000  0.05578000  1.0
  C  C138  1  0.70730000  0.94422000  0.31500000  1.0
  C  C139  1  0.34820000  0.00000000  0.55040000  1.0
  C  C140  1  0.65180000  0.00000000  0.55040000  1.0
  C  C141  1  0.29270000  0.05578000  0.68500000  1.0
  C  C142  1  0.84080000  0.19970000  0.00000000  1.0
  C  C143  1  0.31830000  0.33750000  0.00000000  1.0
  C  C144  1  0.15920000  0.80030000  0.00000000  1.0
  C  C145  1  0.34820000  0.44960000  0.00000000  1.0
  C  C146  1  0.31830000  0.66250000  0.00000000  1.0
  C  C147  1  0.24110000  0.27030000  0.94424000  1.0
  C  C148  1  0.24110000  0.72970000  0.94424000  1.0
  C  C149  1  0.68170000  0.00000000  0.66250000  1.0
  C  C150  1  0.44450000  0.00000000  0.63760000  1.0
  C  C151  1  0.84080000  0.00000000  0.19970000  1.0
  C  C152  1  0.75890000  0.94424000  0.72970000  1.0
  C  C153  1  0.62480000  0.38720000  0.00000000  1.0
  C  C154  1  0.71770000  0.53130000  0.00000000  1.0
  C  C155  1  0.70730000  0.31500000  0.94422000  1.0
  N  N156  1  0.50000000  0.00000000  0.40200000  1.0
  N  N157  1  0.86950000  0.18000000  0.94800000  1.0
  N  N158  1  0.08122000  0.85931000  0.03062000  1.0
  N  N159  1  0.13050000  0.05200000  0.18000000  1.0
  N  N160  1  0.13050000  0.05200000  0.82000000  1.0
  N  N161  1  0.13050000  0.18000000  0.05200000  1.0
  N  N162  1  0.08122000  0.03062000  0.85931000  1.0
  N  N163  1  0.13050000  0.94800000  0.18000000  1.0
  N  N164  1  0.91878000  0.03062000  0.14069000  1.0
  N  N165  1  0.86950000  0.94800000  0.82000000  1.0
  N  N166  1  0.08122000  0.96938000  0.14069000  1.0
  N  N167  1  0.13050000  0.82000000  0.05200000  1.0
  N  N168  1  0.50000000  0.40200000  0.00000000  1.0
  N  N169  1  0.50000000  0.59800000  0.00000000  1.0
  N  N170  1  0.50000000  0.00000000  0.59800000  1.0
  N  N171  1  0.13050000  0.82000000  0.94800000  1.0
  N  N172  1  0.13050000  0.18000000  0.94800000  1.0
  N  N173  1  0.91878000  0.14069000  0.03062000  1.0
  N  N174  1  0.91878000  0.14069000  0.96938000  1.0
  N  N175  1  0.08122000  0.14069000  0.96938000  1.0
  N  N176  1  0.91878000  0.96938000  0.85931000  1.0
  N  N177  1  0.08122000  0.85931000  0.96938000  1.0
  N  N178  1  0.86950000  0.94800000  0.18000000  1.0
  N  N179  1  0.91878000  0.85931000  0.03062000  1.0
  N  N180  1  0.86950000  0.18000000  0.05200000  1.0
  N  N181  1  0.86950000  0.82000000  0.05200000  1.0
  N  N182  1  0.13050000  0.94800000  0.82000000  1.0
  N  N183  1  0.86950000  0.05200000  0.18000000  1.0
  N  N184  1  0.08122000  0.03062000  0.14069000  1.0
  N  N185  1  0.39140000  0.00000000  0.50000000  1.0
  N  N186  1  0.86950000  0.82000000  0.94800000  1.0
  N  N187  1  0.86950000  0.05200000  0.82000000  1.0
  N  N188  1  0.91878000  0.96938000  0.14069000  1.0
  N  N189  1  0.08122000  0.14069000  0.03062000  1.0
  N  N190  1  0.91878000  0.85931000  0.96938000  1.0
  N  N191  1  0.08122000  0.96938000  0.85931000  1.0
  N  N192  1  0.91878000  0.03062000  0.85931000  1.0
  N  N193  1  0.39140000  0.50000000  0.00000000  1.0
  N  N194  1  0.60860000  0.50000000  0.00000000  1.0
  N  N195  1  0.60860000  0.00000000  0.50000000  1.0
  Cl  Cl196  1  0.00000000  0.83070000  0.16930000  1.0
  Cl  Cl197  1  0.00000000  0.16930000  0.83070000  1.0
  Cl  Cl198  1  0.00000000  0.83070000  0.83070000  1.0
  Cl  Cl199  1  0.00000000  0.16930000  0.16930000  1.0
