# generated using pymatgen
data_Zn3H18C23SN3O10
_symmetry_space_group_name_H-M   'P 1'
_cell_length_a   23.14510000
_cell_length_b   27.39760000
_cell_length_c   10.54820000
_cell_angle_alpha   90.00000000
_cell_angle_beta   90.00000000
_cell_angle_gamma   90.00000000
_symmetry_Int_Tables_number   1
_chemical_formula_structural   Zn3H18C23SN3O10
_chemical_formula_sum   'Zn24 H144 C184 S8 N24 O80'
_cell_volume   6688.82660672
_cell_formula_units_Z   8
loop_
 _symmetry_equiv_pos_site_id
 _symmetry_equiv_pos_as_xyz
  1  'x, y, z'
loop_
 _atom_site_type_symbol
 _atom_site_label
 _atom_site_symmetry_multiplicity
 _atom_site_fract_x
 _atom_site_fract_y
 _atom_site_fract_z
 _atom_site_occupancy
  Zn  Zn0  1  0.80428000  0.95855000  0.58679000  1.0
  Zn  Zn1  1  0.73062000  0.04152000  0.43758000  1.0
  Zn  Zn2  1  0.77087000  0.04411000  0.75709000  1.0
  Zn  Zn3  1  0.69572000  0.04145000  0.08679000  1.0
  Zn  Zn4  1  0.76938000  0.95848000  0.93758000  1.0
  Zn  Zn5  1  0.72913000  0.95589000  0.25709000  1.0
  Zn  Zn6  1  0.19572000  0.45855000  0.41321000  1.0
  Zn  Zn7  1  0.26938000  0.54152000  0.56242000  1.0
  Zn  Zn8  1  0.22913000  0.54411000  0.24291000  1.0
  Zn  Zn9  1  0.30428000  0.54145000  0.91321000  1.0
  Zn  Zn10  1  0.23062000  0.45848000  0.06242000  1.0
  Zn  Zn11  1  0.27087000  0.45589000  0.74291000  1.0
  Zn  Zn12  1  0.19572000  0.04145000  0.41321000  1.0
  Zn  Zn13  1  0.26938000  0.95848000  0.56242000  1.0
  Zn  Zn14  1  0.22913000  0.95589000  0.24291000  1.0
  Zn  Zn15  1  0.30428000  0.95855000  0.91321000  1.0
  Zn  Zn16  1  0.23062000  0.04152000  0.06242000  1.0
  Zn  Zn17  1  0.27087000  0.04411000  0.74291000  1.0
  Zn  Zn18  1  0.80428000  0.54145000  0.58679000  1.0
  Zn  Zn19  1  0.73062000  0.45848000  0.43758000  1.0
  Zn  Zn20  1  0.77087000  0.45589000  0.75709000  1.0
  Zn  Zn21  1  0.69572000  0.45855000  0.08679000  1.0
  Zn  Zn22  1  0.76938000  0.54152000  0.93758000  1.0
  Zn  Zn23  1  0.72913000  0.54411000  0.25709000  1.0
  H  H24  1  0.70400000  0.95100000  0.49500000  1.0
  H  H25  1  0.04380000  0.08310000  0.95070000  1.0
  H  H26  1  0.98200000  0.94900000  0.72070000  1.0
  H  H27  1  0.81240000  0.12990000  0.43920000  1.0
  H  H28  1  0.84710000  0.12900000  0.79170000  1.0
  H  H29  1  0.94730000  0.07430000  0.90050000  1.0
  H  H30  1  0.89130000  0.87210000  0.58420000  1.0
  H  H31  1  0.64460000  0.12780000  0.41200000  1.0
  H  H32  1  0.64130000  0.21220000  0.40820000  1.0
  H  H33  1  0.72080000  0.78730000  0.60560000  1.0
  H  H34  1  0.81400000  0.21330000  0.44250000  1.0
  H  H35  1  0.68030000  0.12900000  0.74590000  1.0
  H  H36  1  0.89490000  0.78850000  0.57910000  1.0
  H  H37  1  0.72280000  0.87040000  0.60710000  1.0
  H  H38  1  0.84870000  0.21230000  0.79980000  1.0
  H  H39  1  0.67790000  0.21260000  0.74730000  1.0
  H  H40  1  0.78651000  0.46909000  0.25370000  1.0
  H  H41  1  0.83501000  0.46207000  0.56800000  1.0
  H  H42  1  0.79600000  0.04900000  0.99500000  1.0
  H  H43  1  0.45620000  0.91690000  0.45070000  1.0
  H  H44  1  0.51800000  0.05100000  0.22070000  1.0
  H  H45  1  0.68760000  0.87010000  0.93920000  1.0
  H  H46  1  0.65290000  0.87100000  0.29170000  1.0
  H  H47  1  0.55270000  0.92570000  0.40050000  1.0
  H  H48  1  0.60870000  0.12790000  0.08420000  1.0
  H  H49  1  0.85540000  0.87220000  0.91200000  1.0
  H  H50  1  0.85870000  0.78780000  0.90820000  1.0
  H  H51  1  0.77920000  0.21270000  0.10560000  1.0
  H  H52  1  0.68600000  0.78670000  0.94250000  1.0
  H  H53  1  0.81970000  0.87100000  0.24590000  1.0
  H  H54  1  0.60510000  0.21150000  0.07910000  1.0
  H  H55  1  0.77720000  0.12960000  0.10710000  1.0
  H  H56  1  0.65130000  0.78770000  0.29980000  1.0
  H  H57  1  0.82210000  0.78740000  0.24730000  1.0
  H  H58  1  0.71349000  0.53091000  0.75370000  1.0
  H  H59  1  0.66499000  0.53793000  0.06800000  1.0
  H  H60  1  0.29600000  0.45100000  0.50500000  1.0
  H  H61  1  0.95620000  0.58310000  0.04930000  1.0
  H  H62  1  0.01800000  0.44900000  0.27930000  1.0
  H  H63  1  0.18760000  0.62990000  0.56080000  1.0
  H  H64  1  0.15290000  0.62900000  0.20830000  1.0
  H  H65  1  0.05270000  0.57430000  0.09950000  1.0
  H  H66  1  0.10870000  0.37210000  0.41580000  1.0
  H  H67  1  0.35540000  0.62780000  0.58800000  1.0
  H  H68  1  0.35870000  0.71220000  0.59180000  1.0
  H  H69  1  0.27920000  0.28730000  0.39440000  1.0
  H  H70  1  0.18600000  0.71330000  0.55750000  1.0
  H  H71  1  0.31970000  0.62900000  0.25410000  1.0
  H  H72  1  0.10510000  0.28850000  0.42090000  1.0
  H  H73  1  0.27720000  0.37040000  0.39290000  1.0
  H  H74  1  0.15130000  0.71230000  0.20020000  1.0
  H  H75  1  0.32210000  0.71260000  0.25270000  1.0
  H  H76  1  0.21349000  0.96909000  0.74630000  1.0
  H  H77  1  0.16499000  0.96207000  0.43200000  1.0
  H  H78  1  0.20400000  0.54900000  0.00500000  1.0
  H  H79  1  0.54380000  0.41690000  0.54930000  1.0
  H  H80  1  0.48200000  0.55100000  0.77930000  1.0
  H  H81  1  0.31240000  0.37010000  0.06080000  1.0
  H  H82  1  0.34710000  0.37100000  0.70830000  1.0
  H  H83  1  0.44730000  0.42570000  0.59950000  1.0
  H  H84  1  0.39130000  0.62790000  0.91580000  1.0
  H  H85  1  0.14460000  0.37220000  0.08800000  1.0
  H  H86  1  0.14130000  0.28780000  0.09180000  1.0
  H  H87  1  0.22080000  0.71270000  0.89440000  1.0
  H  H88  1  0.31400000  0.28670000  0.05750000  1.0
  H  H89  1  0.18030000  0.37100000  0.75410000  1.0
  H  H90  1  0.39490000  0.71150000  0.92090000  1.0
  H  H91  1  0.22280000  0.62960000  0.89290000  1.0
  H  H92  1  0.34870000  0.28770000  0.70020000  1.0
  H  H93  1  0.17790000  0.28740000  0.75270000  1.0
  H  H94  1  0.28651000  0.03091000  0.24630000  1.0
  H  H95  1  0.33501000  0.03793000  0.93200000  1.0
  H  H96  1  0.29600000  0.04900000  0.50500000  1.0
  H  H97  1  0.95620000  0.91690000  0.04930000  1.0
  H  H98  1  0.01800000  0.05100000  0.27930000  1.0
  H  H99  1  0.18760000  0.87010000  0.56080000  1.0
  H  H100  1  0.15290000  0.87100000  0.20830000  1.0
  H  H101  1  0.05270000  0.92570000  0.09950000  1.0
  H  H102  1  0.10870000  0.12790000  0.41580000  1.0
  H  H103  1  0.35540000  0.87220000  0.58800000  1.0
  H  H104  1  0.35870000  0.78780000  0.59180000  1.0
  H  H105  1  0.27920000  0.21270000  0.39440000  1.0
  H  H106  1  0.18600000  0.78670000  0.55750000  1.0
  H  H107  1  0.31970000  0.87100000  0.25410000  1.0
  H  H108  1  0.10510000  0.21150000  0.42090000  1.0
  H  H109  1  0.27720000  0.12960000  0.39290000  1.0
  H  H110  1  0.15130000  0.78770000  0.20020000  1.0
  H  H111  1  0.32210000  0.78740000  0.25270000  1.0
  H  H112  1  0.21349000  0.53091000  0.74630000  1.0
  H  H113  1  0.16499000  0.53793000  0.43200000  1.0
  H  H114  1  0.20400000  0.95100000  0.00500000  1.0
  H  H115  1  0.54380000  0.08310000  0.54930000  1.0
  H  H116  1  0.48200000  0.94900000  0.77930000  1.0
  H  H117  1  0.31240000  0.12990000  0.06080000  1.0
  H  H118  1  0.34710000  0.12900000  0.70830000  1.0
  H  H119  1  0.44730000  0.07430000  0.59950000  1.0
  H  H120  1  0.39130000  0.87210000  0.91580000  1.0
  H  H121  1  0.14460000  0.12780000  0.08800000  1.0
  H  H122  1  0.14130000  0.21220000  0.09180000  1.0
  H  H123  1  0.22080000  0.78730000  0.89440000  1.0
  H  H124  1  0.31400000  0.21330000  0.05750000  1.0
  H  H125  1  0.18030000  0.12900000  0.75410000  1.0
  H  H126  1  0.39490000  0.78850000  0.92090000  1.0
  H  H127  1  0.22280000  0.87040000  0.89290000  1.0
  H  H128  1  0.34870000  0.21230000  0.70020000  1.0
  H  H129  1  0.17790000  0.21260000  0.75270000  1.0
  H  H130  1  0.28651000  0.46909000  0.24630000  1.0
  H  H131  1  0.33501000  0.46207000  0.93200000  1.0
  H  H132  1  0.70400000  0.54900000  0.49500000  1.0
  H  H133  1  0.04380000  0.41690000  0.95070000  1.0
  H  H134  1  0.98200000  0.55100000  0.72070000  1.0
  H  H135  1  0.81240000  0.37010000  0.43920000  1.0
  H  H136  1  0.84710000  0.37100000  0.79170000  1.0
  H  H137  1  0.94730000  0.42570000  0.90050000  1.0
  H  H138  1  0.89130000  0.62790000  0.58420000  1.0
  H  H139  1  0.64460000  0.37220000  0.41200000  1.0
  H  H140  1  0.64130000  0.28780000  0.40820000  1.0
  H  H141  1  0.72080000  0.71270000  0.60560000  1.0
  H  H142  1  0.81400000  0.28670000  0.44250000  1.0
  H  H143  1  0.68030000  0.37100000  0.74590000  1.0
  H  H144  1  0.89490000  0.71150000  0.57910000  1.0
  H  H145  1  0.72280000  0.62960000  0.60710000  1.0
  H  H146  1  0.84870000  0.28770000  0.79980000  1.0
  H  H147  1  0.67790000  0.28740000  0.74730000  1.0
  H  H148  1  0.78651000  0.03091000  0.25370000  1.0
  H  H149  1  0.83501000  0.03793000  0.56800000  1.0
  H  H150  1  0.79600000  0.45100000  0.99500000  1.0
  H  H151  1  0.45620000  0.58310000  0.45070000  1.0
  H  H152  1  0.51800000  0.44900000  0.22070000  1.0
  H  H153  1  0.68760000  0.62990000  0.93920000  1.0
  H  H154  1  0.65290000  0.62900000  0.29170000  1.0
  H  H155  1  0.55270000  0.57430000  0.40050000  1.0
  H  H156  1  0.60870000  0.37210000  0.08420000  1.0
  H  H157  1  0.85540000  0.62780000  0.91200000  1.0
  H  H158  1  0.85870000  0.71220000  0.90820000  1.0
  H  H159  1  0.77920000  0.28730000  0.10560000  1.0
  H  H160  1  0.68600000  0.71330000  0.94250000  1.0
  H  H161  1  0.81970000  0.62900000  0.24590000  1.0
  H  H162  1  0.60510000  0.28850000  0.07910000  1.0
  H  H163  1  0.77720000  0.37040000  0.10710000  1.0
  H  H164  1  0.65130000  0.71230000  0.29980000  1.0
  H  H165  1  0.82210000  0.71260000  0.24730000  1.0
  H  H166  1  0.71349000  0.96909000  0.75370000  1.0
  H  H167  1  0.66499000  0.96207000  0.06800000  1.0
  C  C168  1  0.13530000  0.03340000  0.88810000  1.0
  C  C169  1  0.95540000  0.01160000  0.80100000  1.0
  C  C170  1  0.05290000  0.98070000  0.79620000  1.0
  C  C171  1  0.80790000  0.77630000  0.59170000  1.0
  C  C172  1  0.07270000  0.02270000  0.86060000  1.0
  C  C173  1  0.76340000  0.22320000  0.77050000  1.0
  C  C174  1  0.72730000  0.22340000  0.42460000  1.0
  C  C175  1  0.89270000  0.00750000  0.75900000  1.0
  C  C176  1  0.03190000  0.05630000  0.90180000  1.0
  C  C177  1  0.99480000  0.97650000  0.76600000  1.0
  C  C178  1  0.77710000  0.14670000  0.43480000  1.0
  C  C179  1  0.81220000  0.14600000  0.78110000  1.0
  C  C180  1  0.97410000  0.05100000  0.87210000  1.0
  C  C181  1  0.85640000  0.85470000  0.58800000  1.0
  C  C182  1  0.67950000  0.14520000  0.41820000  1.0
  C  C183  1  0.67710000  0.19630000  0.41580000  1.0
  C  C184  1  0.75650000  0.80350000  0.60050000  1.0
  C  C185  1  0.77850000  0.19690000  0.43510000  1.0
  C  C186  1  0.71530000  0.14620000  0.75380000  1.0
  C  C187  1  0.85890000  0.80430000  0.58530000  1.0
  C  C188  1  0.75810000  0.85360000  0.60170000  1.0
  C  C189  1  0.81350000  0.19620000  0.78590000  1.0
  C  C190  1  0.71350000  0.19640000  0.75590000  1.0
  C  C191  1  0.36470000  0.96660000  0.38810000  1.0
  C  C192  1  0.54460000  0.98840000  0.30100000  1.0
  C  C193  1  0.44710000  0.01930000  0.29620000  1.0
  C  C194  1  0.69210000  0.22370000  0.09170000  1.0
  C  C195  1  0.42730000  0.97730000  0.36060000  1.0
  C  C196  1  0.73660000  0.77680000  0.27050000  1.0
  C  C197  1  0.77270000  0.77660000  0.92460000  1.0
  C  C198  1  0.60730000  0.99250000  0.25900000  1.0
  C  C199  1  0.46810000  0.94370000  0.40180000  1.0
  C  C200  1  0.50520000  0.02350000  0.26600000  1.0
  C  C201  1  0.72290000  0.85330000  0.93480000  1.0
  C  C202  1  0.68780000  0.85400000  0.28110000  1.0
  C  C203  1  0.52590000  0.94900000  0.37210000  1.0
  C  C204  1  0.64360000  0.14530000  0.08800000  1.0
  C  C205  1  0.82050000  0.85480000  0.91820000  1.0
  C  C206  1  0.82290000  0.80370000  0.91580000  1.0
  C  C207  1  0.74350000  0.19650000  0.10050000  1.0
  C  C208  1  0.72150000  0.80310000  0.93510000  1.0
  C  C209  1  0.78470000  0.85380000  0.25380000  1.0
  C  C210  1  0.64110000  0.19570000  0.08530000  1.0
  C  C211  1  0.74190000  0.14640000  0.10170000  1.0
  C  C212  1  0.68650000  0.80380000  0.28590000  1.0
  C  C213  1  0.78650000  0.80360000  0.25590000  1.0
  C  C214  1  0.86470000  0.53340000  0.11190000  1.0
  C  C215  1  0.04460000  0.51160000  0.19900000  1.0
  C  C216  1  0.94710000  0.48070000  0.20380000  1.0
  C  C217  1  0.19210000  0.27630000  0.40830000  1.0
  C  C218  1  0.92730000  0.52270000  0.13940000  1.0
  C  C219  1  0.23660000  0.72320000  0.22950000  1.0
  C  C220  1  0.27270000  0.72340000  0.57540000  1.0
  C  C221  1  0.10730000  0.50750000  0.24100000  1.0
  C  C222  1  0.96810000  0.55630000  0.09820000  1.0
  C  C223  1  0.00520000  0.47650000  0.23400000  1.0
  C  C224  1  0.22290000  0.64670000  0.56520000  1.0
  C  C225  1  0.18780000  0.64600000  0.21890000  1.0
  C  C226  1  0.02590000  0.55100000  0.12790000  1.0
  C  C227  1  0.14360000  0.35470000  0.41200000  1.0
  C  C228  1  0.32050000  0.64520000  0.58180000  1.0
  C  C229  1  0.32290000  0.69630000  0.58420000  1.0
  C  C230  1  0.24350000  0.30350000  0.39950000  1.0
  C  C231  1  0.22150000  0.69690000  0.56490000  1.0
  C  C232  1  0.28470000  0.64620000  0.24620000  1.0
  C  C233  1  0.14110000  0.30430000  0.41470000  1.0
  C  C234  1  0.24190000  0.35360000  0.39830000  1.0
  C  C235  1  0.18650000  0.69620000  0.21410000  1.0
  C  C236  1  0.28650000  0.69640000  0.24410000  1.0
  C  C237  1  0.63530000  0.46660000  0.61190000  1.0
  C  C238  1  0.45540000  0.48840000  0.69900000  1.0
  C  C239  1  0.55290000  0.51930000  0.70380000  1.0
  C  C240  1  0.30790000  0.72370000  0.90830000  1.0
  C  C241  1  0.57270000  0.47730000  0.63940000  1.0
  C  C242  1  0.26340000  0.27680000  0.72950000  1.0
  C  C243  1  0.22730000  0.27660000  0.07540000  1.0
  C  C244  1  0.39270000  0.49250000  0.74100000  1.0
  C  C245  1  0.53190000  0.44370000  0.59820000  1.0
  C  C246  1  0.49480000  0.52350000  0.73400000  1.0
  C  C247  1  0.27710000  0.35330000  0.06520000  1.0
  C  C248  1  0.31220000  0.35400000  0.71890000  1.0
  C  C249  1  0.47410000  0.44900000  0.62790000  1.0
  C  C250  1  0.35640000  0.64530000  0.91200000  1.0
  C  C251  1  0.17950000  0.35480000  0.08180000  1.0
  C  C252  1  0.17710000  0.30370000  0.08420000  1.0
  C  C253  1  0.25650000  0.69650000  0.89950000  1.0
  C  C254  1  0.27850000  0.30310000  0.06490000  1.0
  C  C255  1  0.21530000  0.35380000  0.74620000  1.0
  C  C256  1  0.35890000  0.69570000  0.91470000  1.0
  C  C257  1  0.25810000  0.64640000  0.89830000  1.0
  C  C258  1  0.31350000  0.30380000  0.71410000  1.0
  C  C259  1  0.21350000  0.30360000  0.74410000  1.0
  C  C260  1  0.86470000  0.96660000  0.11190000  1.0
  C  C261  1  0.04460000  0.98840000  0.19900000  1.0
  C  C262  1  0.94710000  0.01930000  0.20380000  1.0
  C  C263  1  0.19210000  0.22370000  0.40830000  1.0
  C  C264  1  0.92730000  0.97730000  0.13940000  1.0
  C  C265  1  0.23660000  0.77680000  0.22950000  1.0
  C  C266  1  0.27270000  0.77660000  0.57540000  1.0
  C  C267  1  0.10730000  0.99250000  0.24100000  1.0
  C  C268  1  0.96810000  0.94370000  0.09820000  1.0
  C  C269  1  0.00520000  0.02350000  0.23400000  1.0
  C  C270  1  0.22290000  0.85330000  0.56520000  1.0
  C  C271  1  0.18780000  0.85400000  0.21890000  1.0
  C  C272  1  0.02590000  0.94900000  0.12790000  1.0
  C  C273  1  0.14360000  0.14530000  0.41200000  1.0
  C  C274  1  0.32050000  0.85480000  0.58180000  1.0
  C  C275  1  0.32290000  0.80370000  0.58420000  1.0
  C  C276  1  0.24350000  0.19650000  0.39950000  1.0
  C  C277  1  0.22150000  0.80310000  0.56490000  1.0
  C  C278  1  0.28470000  0.85380000  0.24620000  1.0
  C  C279  1  0.14110000  0.19570000  0.41470000  1.0
  C  C280  1  0.24190000  0.14640000  0.39830000  1.0
  C  C281  1  0.18650000  0.80380000  0.21410000  1.0
  C  C282  1  0.28650000  0.80360000  0.24410000  1.0
  C  C283  1  0.63530000  0.03340000  0.61190000  1.0
  C  C284  1  0.45540000  0.01160000  0.69900000  1.0
  C  C285  1  0.55290000  0.98070000  0.70380000  1.0
  C  C286  1  0.30790000  0.77630000  0.90830000  1.0
  C  C287  1  0.57270000  0.02270000  0.63940000  1.0
  C  C288  1  0.26340000  0.22320000  0.72950000  1.0
  C  C289  1  0.22730000  0.22340000  0.07540000  1.0
  C  C290  1  0.39270000  0.00750000  0.74100000  1.0
  C  C291  1  0.53190000  0.05630000  0.59820000  1.0
  C  C292  1  0.49480000  0.97650000  0.73400000  1.0
  C  C293  1  0.27710000  0.14670000  0.06520000  1.0
  C  C294  1  0.31220000  0.14600000  0.71890000  1.0
  C  C295  1  0.47410000  0.05100000  0.62790000  1.0
  C  C296  1  0.35640000  0.85470000  0.91200000  1.0
  C  C297  1  0.17950000  0.14520000  0.08180000  1.0
  C  C298  1  0.17710000  0.19630000  0.08420000  1.0
  C  C299  1  0.25650000  0.80350000  0.89950000  1.0
  C  C300  1  0.27850000  0.19690000  0.06490000  1.0
  C  C301  1  0.21530000  0.14620000  0.74620000  1.0
  C  C302  1  0.35890000  0.80430000  0.91470000  1.0
  C  C303  1  0.25810000  0.85360000  0.89830000  1.0
  C  C304  1  0.31350000  0.19620000  0.71410000  1.0
  C  C305  1  0.21350000  0.19640000  0.74410000  1.0
  C  C306  1  0.13530000  0.46660000  0.88810000  1.0
  C  C307  1  0.95540000  0.48840000  0.80100000  1.0
  C  C308  1  0.05290000  0.51930000  0.79620000  1.0
  C  C309  1  0.80790000  0.72370000  0.59170000  1.0
  C  C310  1  0.07270000  0.47730000  0.86060000  1.0
  C  C311  1  0.76340000  0.27680000  0.77050000  1.0
  C  C312  1  0.72730000  0.27660000  0.42460000  1.0
  C  C313  1  0.89270000  0.49250000  0.75900000  1.0
  C  C314  1  0.03190000  0.44370000  0.90180000  1.0
  C  C315  1  0.99480000  0.52350000  0.76600000  1.0
  C  C316  1  0.77710000  0.35330000  0.43480000  1.0
  C  C317  1  0.81220000  0.35400000  0.78110000  1.0
  C  C318  1  0.97410000  0.44900000  0.87210000  1.0
  C  C319  1  0.85640000  0.64530000  0.58800000  1.0
  C  C320  1  0.67950000  0.35480000  0.41820000  1.0
  C  C321  1  0.67710000  0.30370000  0.41580000  1.0
  C  C322  1  0.75650000  0.69650000  0.60050000  1.0
  C  C323  1  0.77850000  0.30310000  0.43510000  1.0
  C  C324  1  0.71530000  0.35380000  0.75380000  1.0
  C  C325  1  0.85890000  0.69570000  0.58530000  1.0
  C  C326  1  0.75810000  0.64640000  0.60170000  1.0
  C  C327  1  0.81350000  0.30380000  0.78590000  1.0
  C  C328  1  0.71350000  0.30360000  0.75590000  1.0
  C  C329  1  0.36470000  0.53340000  0.38810000  1.0
  C  C330  1  0.54460000  0.51160000  0.30100000  1.0
  C  C331  1  0.44710000  0.48070000  0.29620000  1.0
  C  C332  1  0.69210000  0.27630000  0.09170000  1.0
  C  C333  1  0.42730000  0.52270000  0.36060000  1.0
  C  C334  1  0.73660000  0.72320000  0.27050000  1.0
  C  C335  1  0.77270000  0.72340000  0.92460000  1.0
  C  C336  1  0.60730000  0.50750000  0.25900000  1.0
  C  C337  1  0.46810000  0.55630000  0.40180000  1.0
  C  C338  1  0.50520000  0.47650000  0.26600000  1.0
  C  C339  1  0.72290000  0.64670000  0.93480000  1.0
  C  C340  1  0.68780000  0.64600000  0.28110000  1.0
  C  C341  1  0.52590000  0.55100000  0.37210000  1.0
  C  C342  1  0.64360000  0.35470000  0.08800000  1.0
  C  C343  1  0.82050000  0.64520000  0.91820000  1.0
  C  C344  1  0.82290000  0.69630000  0.91580000  1.0
  C  C345  1  0.74350000  0.30350000  0.10050000  1.0
  C  C346  1  0.72150000  0.69690000  0.93510000  1.0
  C  C347  1  0.78470000  0.64620000  0.25380000  1.0
  C  C348  1  0.64110000  0.30430000  0.08530000  1.0
  C  C349  1  0.74190000  0.35360000  0.10170000  1.0
  C  C350  1  0.68650000  0.69620000  0.28590000  1.0
  C  C351  1  0.78650000  0.69640000  0.25590000  1.0
  S  S352  1  0.09990000  0.93232000  0.75280000  1.0
  S  S353  1  0.40010000  0.06768000  0.25280000  1.0
  S  S354  1  0.90010000  0.43232000  0.24720000  1.0
  S  S355  1  0.59990000  0.56768000  0.74720000  1.0
  S  S356  1  0.90010000  0.06768000  0.24720000  1.0
  S  S357  1  0.59990000  0.93232000  0.74720000  1.0
  S  S358  1  0.09990000  0.56768000  0.75280000  1.0
  S  S359  1  0.40010000  0.43232000  0.25280000  1.0
  N  N360  1  0.76460000  0.12060000  0.76250000  1.0
  N  N361  1  0.80680000  0.88040000  0.59570000  1.0
  N  N362  1  0.72810000  0.12010000  0.42850000  1.0
  N  N363  1  0.73540000  0.87940000  0.26250000  1.0
  N  N364  1  0.69320000  0.11960000  0.09570000  1.0
  N  N365  1  0.77190000  0.87990000  0.92850000  1.0
  N  N366  1  0.23540000  0.62060000  0.23750000  1.0
  N  N367  1  0.19320000  0.38040000  0.40430000  1.0
  N  N368  1  0.27190000  0.62010000  0.57150000  1.0
  N  N369  1  0.26460000  0.37940000  0.73750000  1.0
  N  N370  1  0.30680000  0.61960000  0.90430000  1.0
  N  N371  1  0.22810000  0.37990000  0.07150000  1.0
  N  N372  1  0.23540000  0.87940000  0.23750000  1.0
  N  N373  1  0.19320000  0.11960000  0.40430000  1.0
  N  N374  1  0.27190000  0.87990000  0.57150000  1.0
  N  N375  1  0.26460000  0.12060000  0.73750000  1.0
  N  N376  1  0.30680000  0.88040000  0.90430000  1.0
  N  N377  1  0.22810000  0.12010000  0.07150000  1.0
  N  N378  1  0.76460000  0.37940000  0.76250000  1.0
  N  N379  1  0.80680000  0.61960000  0.59570000  1.0
  N  N380  1  0.72810000  0.37990000  0.42850000  1.0
  N  N381  1  0.73540000  0.62060000  0.26250000  1.0
  N  N382  1  0.69320000  0.38040000  0.09570000  1.0
  N  N383  1  0.77190000  0.62010000  0.92850000  1.0
  O  O384  1  0.79180000  0.03793000  0.56800000  1.0
  O  O385  1  0.75670000  0.96909000  0.75370000  1.0
  O  O386  1  0.86020000  0.04253000  0.79030000  1.0
  O  O387  1  0.14860000  0.03727000  0.00310000  1.0
  O  O388  1  0.16880000  0.04066000  0.79740000  1.0
  O  O389  1  0.87910000  0.97017000  0.69610000  1.0
  O  O390  1  0.73880000  0.96160000  0.45210000  1.0
  O  O391  1  0.06440000  0.88850000  0.75490000  1.0
  O  O392  1  0.12050000  0.94280000  0.62510000  1.0
  O  O393  1  0.14570000  0.93160000  0.84560000  1.0
  O  O394  1  0.70820000  0.96207000  0.06800000  1.0
  O  O395  1  0.74330000  0.03091000  0.25370000  1.0
  O  O396  1  0.63980000  0.95747000  0.29030000  1.0
  O  O397  1  0.35140000  0.96273000  0.50310000  1.0
  O  O398  1  0.33120000  0.95934000  0.29740000  1.0
  O  O399  1  0.62090000  0.02983000  0.19610000  1.0
  O  O400  1  0.76120000  0.03840000  0.95210000  1.0
  O  O401  1  0.43560000  0.11150000  0.25490000  1.0
  O  O402  1  0.37950000  0.05720000  0.12510000  1.0
  O  O403  1  0.35430000  0.06840000  0.34560000  1.0
  O  O404  1  0.20820000  0.53793000  0.43200000  1.0
  O  O405  1  0.24330000  0.46909000  0.24630000  1.0
  O  O406  1  0.13980000  0.54253000  0.20970000  1.0
  O  O407  1  0.85140000  0.53727000  0.99690000  1.0
  O  O408  1  0.83120000  0.54066000  0.20260000  1.0
  O  O409  1  0.12090000  0.47017000  0.30390000  1.0
  O  O410  1  0.26120000  0.46160000  0.54790000  1.0
  O  O411  1  0.93560000  0.38850000  0.24510000  1.0
  O  O412  1  0.87950000  0.44280000  0.37490000  1.0
  O  O413  1  0.85430000  0.43160000  0.15440000  1.0
  O  O414  1  0.29180000  0.46207000  0.93200000  1.0
  O  O415  1  0.25670000  0.53091000  0.74630000  1.0
  O  O416  1  0.36020000  0.45747000  0.70970000  1.0
  O  O417  1  0.64860000  0.46273000  0.49690000  1.0
  O  O418  1  0.66880000  0.45934000  0.70260000  1.0
  O  O419  1  0.37910000  0.52983000  0.80390000  1.0
  O  O420  1  0.23880000  0.53840000  0.04790000  1.0
  O  O421  1  0.56440000  0.61150000  0.74510000  1.0
  O  O422  1  0.62050000  0.55720000  0.87490000  1.0
  O  O423  1  0.64570000  0.56840000  0.65440000  1.0
  O  O424  1  0.20820000  0.96207000  0.43200000  1.0
  O  O425  1  0.24330000  0.03091000  0.24630000  1.0
  O  O426  1  0.13980000  0.95747000  0.20970000  1.0
  O  O427  1  0.85140000  0.96273000  0.99690000  1.0
  O  O428  1  0.83120000  0.95934000  0.20260000  1.0
  O  O429  1  0.12090000  0.02983000  0.30390000  1.0
  O  O430  1  0.26120000  0.03840000  0.54790000  1.0
  O  O431  1  0.93560000  0.11150000  0.24510000  1.0
  O  O432  1  0.87950000  0.05720000  0.37490000  1.0
  O  O433  1  0.85430000  0.06840000  0.15440000  1.0
  O  O434  1  0.29180000  0.03793000  0.93200000  1.0
  O  O435  1  0.25670000  0.96909000  0.74630000  1.0
  O  O436  1  0.36020000  0.04253000  0.70970000  1.0
  O  O437  1  0.64860000  0.03727000  0.49690000  1.0
  O  O438  1  0.66880000  0.04066000  0.70260000  1.0
  O  O439  1  0.37910000  0.97017000  0.80390000  1.0
  O  O440  1  0.23880000  0.96160000  0.04790000  1.0
  O  O441  1  0.56440000  0.88850000  0.74510000  1.0
  O  O442  1  0.62050000  0.94280000  0.87490000  1.0
  O  O443  1  0.64570000  0.93160000  0.65440000  1.0
  O  O444  1  0.79180000  0.46207000  0.56800000  1.0
  O  O445  1  0.75670000  0.53091000  0.75370000  1.0
  O  O446  1  0.86020000  0.45747000  0.79030000  1.0
  O  O447  1  0.14860000  0.46273000  0.00310000  1.0
  O  O448  1  0.16880000  0.45934000  0.79740000  1.0
  O  O449  1  0.87910000  0.52983000  0.69610000  1.0
  O  O450  1  0.73880000  0.53840000  0.45210000  1.0
  O  O451  1  0.06440000  0.61150000  0.75490000  1.0
  O  O452  1  0.12050000  0.55720000  0.62510000  1.0
  O  O453  1  0.14570000  0.56840000  0.84560000  1.0
  O  O454  1  0.70820000  0.53793000  0.06800000  1.0
  O  O455  1  0.74330000  0.46909000  0.25370000  1.0
  O  O456  1  0.63980000  0.54253000  0.29030000  1.0
  O  O457  1  0.35140000  0.53727000  0.50310000  1.0
  O  O458  1  0.33120000  0.54066000  0.29740000  1.0
  O  O459  1  0.62090000  0.47017000  0.19610000  1.0
  O  O460  1  0.76120000  0.46160000  0.95210000  1.0
  O  O461  1  0.43560000  0.38850000  0.25490000  1.0
  O  O462  1  0.37950000  0.44280000  0.12510000  1.0
  O  O463  1  0.35430000  0.43160000  0.34560000  1.0
