# generated using pymatgen
data_Zn2H7C6N9O4
_symmetry_space_group_name_H-M   'P 1'
_cell_length_a   13.83800000
_cell_length_b   12.78400000
_cell_length_c   16.88500000
_cell_angle_alpha   90.00000000
_cell_angle_beta   90.00000000
_cell_angle_gamma   90.00000000
_symmetry_Int_Tables_number   1
_chemical_formula_structural   Zn2H7C6N9O4
_chemical_formula_sum   'Zn16 H56 C48 N72 O32'
_cell_volume   2987.04078992
_cell_formula_units_Z   8
loop_
 _symmetry_equiv_pos_site_id
 _symmetry_equiv_pos_as_xyz
  1  'x, y, z'
loop_
 _atom_site_type_symbol
 _atom_site_label
 _atom_site_symmetry_multiplicity
 _atom_site_fract_x
 _atom_site_fract_y
 _atom_site_fract_z
 _atom_site_occupancy
  Zn  Zn0  1  0.59354000  0.97602000  0.92413000  1.0
  Zn  Zn1  1  0.47753000  0.43198000  0.90213000  1.0
  Zn  Zn2  1  0.90646000  0.02398000  0.42413000  1.0
  Zn  Zn3  1  0.02247000  0.56802000  0.40213000  1.0
  Zn  Zn4  1  0.40646000  0.47602000  0.57587000  1.0
  Zn  Zn5  1  0.52247000  0.93198000  0.59787000  1.0
  Zn  Zn6  1  0.09354000  0.52398000  0.07587000  1.0
  Zn  Zn7  1  0.97753000  0.06802000  0.09787000  1.0
  Zn  Zn8  1  0.40646000  0.02398000  0.07587000  1.0
  Zn  Zn9  1  0.52247000  0.56802000  0.09787000  1.0
  Zn  Zn10  1  0.09354000  0.97602000  0.57587000  1.0
  Zn  Zn11  1  0.97753000  0.43198000  0.59787000  1.0
  Zn  Zn12  1  0.59354000  0.52398000  0.42413000  1.0
  Zn  Zn13  1  0.47753000  0.06802000  0.40213000  1.0
  Zn  Zn14  1  0.90646000  0.47602000  0.92413000  1.0
  Zn  Zn15  1  0.02247000  0.93198000  0.90213000  1.0
  H  H16  1  0.80520000  0.95520000  0.85280000  1.0
  H  H17  1  0.67100000  0.17740000  0.85880000  1.0
  H  H18  1  0.63430000  0.28490000  0.84290000  1.0
  H  H19  1  0.76020000  0.07060000  0.12940000  1.0
  H  H20  1  0.66770000  0.05220000  0.08650000  1.0
  H  H21  1  0.29220000  0.20970000  0.02970000  1.0
  H  H22  1  0.30630000  0.31630000  0.99600000  1.0
  H  H23  1  0.69480000  0.04480000  0.35280000  1.0
  H  H24  1  0.82900000  0.82260000  0.35880000  1.0
  H  H25  1  0.86570000  0.71510000  0.34290000  1.0
  H  H26  1  0.73980000  0.92940000  0.62940000  1.0
  H  H27  1  0.83230000  0.94780000  0.58650000  1.0
  H  H28  1  0.20780000  0.79030000  0.52970000  1.0
  H  H29  1  0.19370000  0.68370000  0.49600000  1.0
  H  H30  1  0.19480000  0.45520000  0.64720000  1.0
  H  H31  1  0.32900000  0.67740000  0.64120000  1.0
  H  H32  1  0.36570000  0.78490000  0.65710000  1.0
  H  H33  1  0.23980000  0.57060000  0.37060000  1.0
  H  H34  1  0.33230000  0.55220000  0.41350000  1.0
  H  H35  1  0.70780000  0.70970000  0.47030000  1.0
  H  H36  1  0.69370000  0.81630000  0.50400000  1.0
  H  H37  1  0.30520000  0.54480000  0.14720000  1.0
  H  H38  1  0.17100000  0.32260000  0.14120000  1.0
  H  H39  1  0.13430000  0.21510000  0.15710000  1.0
  H  H40  1  0.26020000  0.42940000  0.87060000  1.0
  H  H41  1  0.16770000  0.44780000  0.91350000  1.0
  H  H42  1  0.79220000  0.29030000  0.97030000  1.0
  H  H43  1  0.80630000  0.18370000  0.00400000  1.0
  H  H44  1  0.19480000  0.04480000  0.14720000  1.0
  H  H45  1  0.32900000  0.82260000  0.14120000  1.0
  H  H46  1  0.36570000  0.71510000  0.15710000  1.0
  H  H47  1  0.23980000  0.92940000  0.87060000  1.0
  H  H48  1  0.33230000  0.94780000  0.91350000  1.0
  H  H49  1  0.70780000  0.79030000  0.97030000  1.0
  H  H50  1  0.69370000  0.68370000  0.00400000  1.0
  H  H51  1  0.30520000  0.95520000  0.64720000  1.0
  H  H52  1  0.17100000  0.17740000  0.64120000  1.0
  H  H53  1  0.13430000  0.28490000  0.65710000  1.0
  H  H54  1  0.26020000  0.07060000  0.37060000  1.0
  H  H55  1  0.16770000  0.05220000  0.41350000  1.0
  H  H56  1  0.79220000  0.20970000  0.47030000  1.0
  H  H57  1  0.80630000  0.31630000  0.50400000  1.0
  H  H58  1  0.80520000  0.54480000  0.35280000  1.0
  H  H59  1  0.67100000  0.32260000  0.35880000  1.0
  H  H60  1  0.63430000  0.21510000  0.34290000  1.0
  H  H61  1  0.76020000  0.42940000  0.62940000  1.0
  H  H62  1  0.66770000  0.44780000  0.58650000  1.0
  H  H63  1  0.29220000  0.29030000  0.52970000  1.0
  H  H64  1  0.30630000  0.18370000  0.49600000  1.0
  H  H65  1  0.69480000  0.45520000  0.85280000  1.0
  H  H66  1  0.82900000  0.67740000  0.85880000  1.0
  H  H67  1  0.86570000  0.78490000  0.84290000  1.0
  H  H68  1  0.73980000  0.57060000  0.12940000  1.0
  H  H69  1  0.83230000  0.55220000  0.08650000  1.0
  H  H70  1  0.20780000  0.70970000  0.02970000  1.0
  H  H71  1  0.19370000  0.81630000  0.99600000  1.0
  C  C72  1  0.58960000  0.97820000  0.75460000  1.0
  C  C73  1  0.49380000  0.92580000  0.77790000  1.0
  C  C74  1  0.54810000  0.20530000  0.91240000  1.0
  C  C75  1  0.41780000  0.22470000  0.97660000  1.0
  C  C76  1  0.77990000  0.02140000  0.02220000  1.0
  C  C77  1  0.81200000  0.97570000  0.90540000  1.0
  C  C78  1  0.91040000  0.02180000  0.25460000  1.0
  C  C79  1  0.00620000  0.07420000  0.27790000  1.0
  C  C80  1  0.95190000  0.79470000  0.41240000  1.0
  C  C81  1  0.08220000  0.77530000  0.47660000  1.0
  C  C82  1  0.72010000  0.97860000  0.52220000  1.0
  C  C83  1  0.68800000  0.02430000  0.40540000  1.0
  C  C84  1  0.41040000  0.47820000  0.74540000  1.0
  C  C85  1  0.50620000  0.42580000  0.72210000  1.0
  C  C86  1  0.45190000  0.70530000  0.58760000  1.0
  C  C87  1  0.58220000  0.72470000  0.52340000  1.0
  C  C88  1  0.22010000  0.52140000  0.47780000  1.0
  C  C89  1  0.18800000  0.47570000  0.59460000  1.0
  C  C90  1  0.08960000  0.52180000  0.24540000  1.0
  C  C91  1  0.99380000  0.57420000  0.22210000  1.0
  C  C92  1  0.04810000  0.29470000  0.08760000  1.0
  C  C93  1  0.91780000  0.27530000  0.02340000  1.0
  C  C94  1  0.27990000  0.47860000  0.97780000  1.0
  C  C95  1  0.31200000  0.52430000  0.09460000  1.0
  C  C96  1  0.41040000  0.02180000  0.24540000  1.0
  C  C97  1  0.50620000  0.07420000  0.22210000  1.0
  C  C98  1  0.45190000  0.79470000  0.08760000  1.0
  C  C99  1  0.58220000  0.77530000  0.02340000  1.0
  C  C100  1  0.22010000  0.97860000  0.97780000  1.0
  C  C101  1  0.18800000  0.02430000  0.09460000  1.0
  C  C102  1  0.08960000  0.97820000  0.74540000  1.0
  C  C103  1  0.99380000  0.92580000  0.72210000  1.0
  C  C104  1  0.04810000  0.20530000  0.58760000  1.0
  C  C105  1  0.91780000  0.22470000  0.52340000  1.0
  C  C106  1  0.27990000  0.02140000  0.47780000  1.0
  C  C107  1  0.31200000  0.97570000  0.59460000  1.0
  C  C108  1  0.58960000  0.52180000  0.25460000  1.0
  C  C109  1  0.49380000  0.57420000  0.27790000  1.0
  C  C110  1  0.54810000  0.29470000  0.41240000  1.0
  C  C111  1  0.41780000  0.27530000  0.47660000  1.0
  C  C112  1  0.77990000  0.47860000  0.52220000  1.0
  C  C113  1  0.81200000  0.52430000  0.40540000  1.0
  C  C114  1  0.91040000  0.47820000  0.75460000  1.0
  C  C115  1  0.00620000  0.42580000  0.77790000  1.0
  C  C116  1  0.95190000  0.70530000  0.91240000  1.0
  C  C117  1  0.08220000  0.72470000  0.97660000  1.0
  C  C118  1  0.72010000  0.52140000  0.02220000  1.0
  C  C119  1  0.68800000  0.47570000  0.90540000  1.0
  N  N120  1  0.47890000  0.27710000  0.92740000  1.0
  N  N121  1  0.53260000  0.11560000  0.94910000  1.0
  N  N122  1  0.44730000  0.12820000  0.99060000  1.0
  N  N123  1  0.62780000  0.22500000  0.86550000  1.0
  N  N124  1  0.89590000  0.98870000  0.93980000  1.0
  N  N125  1  0.87560000  0.01800000  0.01760000  1.0
  N  N126  1  0.73700000  0.99470000  0.95340000  1.0
  N  N127  1  0.72980000  0.05170000  0.08730000  1.0
  N  N128  1  0.32700000  0.25400000  0.00400000  1.0
  N  N129  1  0.02110000  0.72290000  0.42740000  1.0
  N  N130  1  0.96740000  0.88440000  0.44910000  1.0
  N  N131  1  0.05270000  0.87180000  0.49060000  1.0
  N  N132  1  0.87220000  0.77500000  0.36550000  1.0
  N  N133  1  0.60410000  0.01130000  0.43980000  1.0
  N  N134  1  0.62440000  0.98200000  0.51760000  1.0
  N  N135  1  0.76300000  0.00530000  0.45340000  1.0
  N  N136  1  0.77020000  0.94830000  0.58730000  1.0
  N  N137  1  0.17300000  0.74600000  0.50400000  1.0
  N  N138  1  0.52110000  0.77710000  0.57260000  1.0
  N  N139  1  0.46740000  0.61560000  0.55090000  1.0
  N  N140  1  0.55270000  0.62820000  0.50940000  1.0
  N  N141  1  0.37220000  0.72500000  0.63450000  1.0
  N  N142  1  0.10410000  0.48870000  0.56020000  1.0
  N  N143  1  0.12440000  0.51800000  0.48240000  1.0
  N  N144  1  0.26300000  0.49470000  0.54660000  1.0
  N  N145  1  0.27020000  0.55170000  0.41270000  1.0
  N  N146  1  0.67300000  0.75400000  0.49600000  1.0
  N  N147  1  0.97890000  0.22290000  0.07260000  1.0
  N  N148  1  0.03260000  0.38440000  0.05090000  1.0
  N  N149  1  0.94730000  0.37180000  0.00940000  1.0
  N  N150  1  0.12780000  0.27500000  0.13450000  1.0
  N  N151  1  0.39590000  0.51130000  0.06020000  1.0
  N  N152  1  0.37560000  0.48200000  0.98240000  1.0
  N  N153  1  0.23700000  0.50530000  0.04660000  1.0
  N  N154  1  0.22980000  0.44830000  0.91270000  1.0
  N  N155  1  0.82700000  0.24600000  0.99600000  1.0
  N  N156  1  0.52110000  0.72290000  0.07260000  1.0
  N  N157  1  0.46740000  0.88440000  0.05090000  1.0
  N  N158  1  0.55270000  0.87180000  0.00940000  1.0
  N  N159  1  0.37220000  0.77500000  0.13450000  1.0
  N  N160  1  0.10410000  0.01130000  0.06020000  1.0
  N  N161  1  0.12440000  0.98200000  0.98240000  1.0
  N  N162  1  0.26300000  0.00530000  0.04660000  1.0
  N  N163  1  0.27020000  0.94830000  0.91270000  1.0
  N  N164  1  0.67300000  0.74600000  0.99600000  1.0
  N  N165  1  0.97890000  0.27710000  0.57260000  1.0
  N  N166  1  0.03260000  0.11560000  0.55090000  1.0
  N  N167  1  0.94730000  0.12820000  0.50940000  1.0
  N  N168  1  0.12780000  0.22500000  0.63450000  1.0
  N  N169  1  0.39590000  0.98870000  0.56020000  1.0
  N  N170  1  0.37560000  0.01800000  0.48240000  1.0
  N  N171  1  0.23700000  0.99470000  0.54660000  1.0
  N  N172  1  0.22980000  0.05170000  0.41270000  1.0
  N  N173  1  0.82700000  0.25400000  0.49600000  1.0
  N  N174  1  0.47890000  0.22290000  0.42740000  1.0
  N  N175  1  0.53260000  0.38440000  0.44910000  1.0
  N  N176  1  0.44730000  0.37180000  0.49060000  1.0
  N  N177  1  0.62780000  0.27500000  0.36550000  1.0
  N  N178  1  0.89590000  0.51130000  0.43980000  1.0
  N  N179  1  0.87560000  0.48200000  0.51760000  1.0
  N  N180  1  0.73700000  0.50530000  0.45340000  1.0
  N  N181  1  0.72980000  0.44830000  0.58730000  1.0
  N  N182  1  0.32700000  0.24600000  0.50400000  1.0
  N  N183  1  0.02110000  0.77710000  0.92740000  1.0
  N  N184  1  0.96740000  0.61560000  0.94910000  1.0
  N  N185  1  0.05270000  0.62820000  0.99060000  1.0
  N  N186  1  0.87220000  0.72500000  0.86550000  1.0
  N  N187  1  0.60410000  0.48870000  0.93980000  1.0
  N  N188  1  0.62440000  0.51800000  0.01760000  1.0
  N  N189  1  0.76300000  0.49470000  0.95340000  1.0
  N  N190  1  0.77020000  0.55170000  0.08730000  1.0
  N  N191  1  0.17300000  0.75400000  0.00400000  1.0
  O  O192  1  0.64380000  0.00710000  0.80940000  1.0
  O  O193  1  0.47840000  0.91620000  0.85030000  1.0
  O  O194  1  0.60630000  0.99200000  0.68230000  1.0
  O  O195  1  0.44160000  0.89730000  0.72090000  1.0
  O  O196  1  0.85620000  0.99290000  0.30940000  1.0
  O  O197  1  0.02160000  0.08380000  0.35030000  1.0
  O  O198  1  0.89370000  0.00800000  0.18230000  1.0
  O  O199  1  0.05840000  0.10270000  0.22090000  1.0
  O  O200  1  0.35620000  0.50710000  0.69060000  1.0
  O  O201  1  0.52160000  0.41620000  0.64970000  1.0
  O  O202  1  0.39370000  0.49200000  0.81770000  1.0
  O  O203  1  0.55840000  0.39730000  0.77910000  1.0
  O  O204  1  0.14380000  0.49290000  0.19060000  1.0
  O  O205  1  0.97840000  0.58380000  0.14970000  1.0
  O  O206  1  0.10630000  0.50800000  0.31770000  1.0
  O  O207  1  0.94160000  0.60270000  0.27910000  1.0
  O  O208  1  0.35620000  0.99290000  0.19060000  1.0
  O  O209  1  0.52160000  0.08380000  0.14970000  1.0
  O  O210  1  0.39370000  0.00800000  0.31770000  1.0
  O  O211  1  0.55840000  0.10270000  0.27910000  1.0
  O  O212  1  0.14380000  0.00710000  0.69060000  1.0
  O  O213  1  0.97840000  0.91620000  0.64970000  1.0
  O  O214  1  0.10630000  0.99200000  0.81770000  1.0
  O  O215  1  0.94160000  0.89730000  0.77910000  1.0
  O  O216  1  0.64380000  0.49290000  0.30940000  1.0
  O  O217  1  0.47840000  0.58380000  0.35030000  1.0
  O  O218  1  0.60630000  0.50800000  0.18230000  1.0
  O  O219  1  0.44160000  0.60270000  0.22090000  1.0
  O  O220  1  0.85620000  0.50710000  0.80940000  1.0
  O  O221  1  0.02160000  0.41620000  0.85030000  1.0
  O  O222  1  0.89370000  0.49200000  0.68230000  1.0
  O  O223  1  0.05840000  0.39730000  0.72090000  1.0
