# generated using pymatgen
data_Zn3P2H2(CO3)4
_symmetry_space_group_name_H-M   'P 1'
_cell_length_a   10.23000000
_cell_length_b   11.05900000
_cell_length_c   13.81800000
_cell_angle_alpha   69.01000000
_cell_angle_beta   78.31000000
_cell_angle_gamma   72.15000000
_symmetry_Int_Tables_number   1
_chemical_formula_structural   Zn3P2H2(CO3)4
_chemical_formula_sum   'Zn12 P8 H8 C16 O48'
_cell_volume   1381.68788109
_cell_formula_units_Z   4
loop_
 _symmetry_equiv_pos_site_id
 _symmetry_equiv_pos_as_xyz
  1  'x, y, z'
loop_
 _atom_site_type_symbol
 _atom_site_label
 _atom_site_symmetry_multiplicity
 _atom_site_fract_x
 _atom_site_fract_y
 _atom_site_fract_z
 _atom_site_occupancy
  Zn  Zn0  1  0.92146000  0.14906000  0.08523000  1.0
  Zn  Zn1  1  0.07750000  0.35239000  0.91430000  1.0
  Zn  Zn2  1  0.38253000  0.01446000  0.17298000  1.0
  Zn  Zn3  1  0.37969000  0.51497000  0.17448000  1.0
  Zn  Zn4  1  0.02136000  0.72416000  0.49037000  1.0
  Zn  Zn5  1  0.01660000  0.23150000  0.49360000  1.0
  Zn  Zn6  1  0.07854000  0.85094000  0.91477000  1.0
  Zn  Zn7  1  0.92250000  0.64761000  0.08570000  1.0
  Zn  Zn8  1  0.61747000  0.98554000  0.82702000  1.0
  Zn  Zn9  1  0.62031000  0.48503000  0.82552000  1.0
  Zn  Zn10  1  0.97864000  0.27584000  0.50963000  1.0
  Zn  Zn11  1  0.98340000  0.76850000  0.50640000  1.0
  P  P12  1  0.22299000  0.03104000  0.98165000  1.0
  P  P13  1  0.22296000  0.53098000  0.98146000  1.0
  P  P14  1  0.15649000  0.97881000  0.38131000  1.0
  P  P15  1  0.15654000  0.48571000  0.38395000  1.0
  P  P16  1  0.77701000  0.96896000  0.01835000  1.0
  P  P17  1  0.77704000  0.46902000  0.01854000  1.0
  P  P18  1  0.84351000  0.02119000  0.61869000  1.0
  P  P19  1  0.84346000  0.51429000  0.61605000  1.0
  H  H20  1  0.23620000  0.10290000  0.79950000  1.0
  H  H21  1  0.23940000  0.60030000  0.80010000  1.0
  H  H22  1  0.92320000  0.08440000  0.36120000  1.0
  H  H23  1  0.92270000  0.58690000  0.35780000  1.0
  H  H24  1  0.76380000  0.89710000  0.20050000  1.0
  H  H25  1  0.76060000  0.39970000  0.19990000  1.0
  H  H26  1  0.07680000  0.91560000  0.63880000  1.0
  H  H27  1  0.07730000  0.41310000  0.64220000  1.0
  C  C28  1  0.30520000  0.08030000  0.84740000  1.0
  C  C29  1  0.63850000  0.79900000  0.17660000  1.0
  C  C30  1  0.30750000  0.57780000  0.84860000  1.0
  C  C31  1  0.63580000  0.30100000  0.17580000  1.0
  C  C32  1  0.00020000  0.05130000  0.31430000  1.0
  C  C33  1  0.96590000  0.94600000  0.28370000  1.0
  C  C34  1  0.00160000  0.55240000  0.31290000  1.0
  C  C35  1  0.03040000  0.55460000  0.71590000  1.0
  C  C36  1  0.69480000  0.91970000  0.15260000  1.0
  C  C37  1  0.36150000  0.20100000  0.82340000  1.0
  C  C38  1  0.69250000  0.42220000  0.15140000  1.0
  C  C39  1  0.36420000  0.69900000  0.82420000  1.0
  C  C40  1  0.99980000  0.94870000  0.68570000  1.0
  C  C41  1  0.03410000  0.05400000  0.71630000  1.0
  C  C42  1  0.99840000  0.44760000  0.68710000  1.0
  C  C43  1  0.96960000  0.44540000  0.28410000  1.0
  O  O44  1  0.10060000  0.15190000  0.98620000  1.0
  O  O45  1  0.82120000  0.09450000  0.00210000  1.0
  O  O46  1  0.33140000  0.00460000  0.04980000  1.0
  O  O47  1  0.58410000  0.02700000  0.17070000  1.0
  O  O48  1  0.51050000  0.81460000  0.19750000  1.0
  O  O49  1  0.27900000  0.30950000  0.82530000  1.0
  O  O50  1  0.17940000  0.40580000  0.99700000  1.0
  O  O51  1  0.89980000  0.34910000  0.01440000  1.0
  O  O52  1  0.33000000  0.50560000  0.05080000  1.0
  O  O53  1  0.58210000  0.52850000  0.16910000  1.0
  O  O54  1  0.71930000  0.19160000  0.17390000  1.0
  O  O55  1  0.50780000  0.31690000  0.19720000  1.0
  O  O56  1  0.27970000  0.94450000  0.30700000  1.0
  O  O57  1  0.16760000  0.08940000  0.42110000  1.0
  O  O58  1  0.13380000  0.85840000  0.47150000  1.0
  O  O59  1  0.01480000  0.16010000  0.22000000  1.0
  O  O60  1  0.96600000  0.96310000  0.18840000  1.0
  O  O61  1  0.93930000  0.84330000  0.35380000  1.0
  O  O62  1  0.28090000  0.45010000  0.30990000  1.0
  O  O63  1  0.16660000  0.59570000  0.42220000  1.0
  O  O64  1  0.86730000  0.63580000  0.52550000  1.0
  O  O65  1  0.01820000  0.66030000  0.21770000  1.0
  O  O66  1  0.03060000  0.53950000  0.81020000  1.0
  O  O67  1  0.05620000  0.65670000  0.64650000  1.0
  O  O68  1  0.89940000  0.84810000  0.01380000  1.0
  O  O69  1  0.17880000  0.90550000  0.99790000  1.0
  O  O70  1  0.66860000  0.99540000  0.95020000  1.0
  O  O71  1  0.41590000  0.97300000  0.82930000  1.0
  O  O72  1  0.48950000  0.18540000  0.80250000  1.0
  O  O73  1  0.72100000  0.69050000  0.17470000  1.0
  O  O74  1  0.82060000  0.59420000  0.00300000  1.0
  O  O75  1  0.10020000  0.65090000  0.98560000  1.0
  O  O76  1  0.67000000  0.49440000  0.94920000  1.0
  O  O77  1  0.41790000  0.47150000  0.83090000  1.0
  O  O78  1  0.28070000  0.80840000  0.82610000  1.0
  O  O79  1  0.49220000  0.68310000  0.80280000  1.0
  O  O80  1  0.72030000  0.05550000  0.69300000  1.0
  O  O81  1  0.83240000  0.91060000  0.57890000  1.0
  O  O82  1  0.86620000  0.14160000  0.52850000  1.0
  O  O83  1  0.98520000  0.83990000  0.78000000  1.0
  O  O84  1  0.03400000  0.03690000  0.81160000  1.0
  O  O85  1  0.06070000  0.15670000  0.64620000  1.0
  O  O86  1  0.71910000  0.54990000  0.69010000  1.0
  O  O87  1  0.83340000  0.40430000  0.57780000  1.0
  O  O88  1  0.13270000  0.36420000  0.47450000  1.0
  O  O89  1  0.98180000  0.33970000  0.78230000  1.0
  O  O90  1  0.96940000  0.46050000  0.18980000  1.0
  O  O91  1  0.94380000  0.34330000  0.35350000  1.0
