# generated using pymatgen
data_V2P2H6C3O7
_symmetry_space_group_name_H-M   'P 1'
_cell_length_a   14.29280000
_cell_length_b   10.24400000
_cell_length_c   18.99010000
_cell_angle_alpha   90.00000000
_cell_angle_beta   96.65800000
_cell_angle_gamma   90.00000000
_symmetry_Int_Tables_number   1
_chemical_formula_structural   V2P2H6C3O7
_chemical_formula_sum   'V16 P16 H48 C24 O56'
_cell_volume   2761.69233509
_cell_formula_units_Z   8
loop_
 _symmetry_equiv_pos_site_id
 _symmetry_equiv_pos_as_xyz
  1  'x, y, z'
loop_
 _atom_site_type_symbol
 _atom_site_label
 _atom_site_symmetry_multiplicity
 _atom_site_fract_x
 _atom_site_fract_y
 _atom_site_fract_z
 _atom_site_occupancy
  V  V0  1  0.15540000  0.61470000  0.08940000  1.0
  V  V1  1  0.22760000  0.55610000  0.28080000  1.0
  V  V2  1  0.65540000  0.11470000  0.08940000  1.0
  V  V3  1  0.72760000  0.05610000  0.28080000  1.0
  V  V4  1  0.84460000  0.61470000  0.41060000  1.0
  V  V5  1  0.77240000  0.55610000  0.21920000  1.0
  V  V6  1  0.34460000  0.11470000  0.41060000  1.0
  V  V7  1  0.27240000  0.05610000  0.21920000  1.0
  V  V8  1  0.84460000  0.38530000  0.91060000  1.0
  V  V9  1  0.77240000  0.44390000  0.71920000  1.0
  V  V10  1  0.34460000  0.88530000  0.91060000  1.0
  V  V11  1  0.27240000  0.94390000  0.71920000  1.0
  V  V12  1  0.15540000  0.38530000  0.58940000  1.0
  V  V13  1  0.22760000  0.44390000  0.78080000  1.0
  V  V14  1  0.65540000  0.88530000  0.58940000  1.0
  V  V15  1  0.72760000  0.94390000  0.78080000  1.0
  P  P16  1  0.78510000  0.37490000  0.07490000  1.0
  P  P17  1  0.16620000  0.33250000  0.16940000  1.0
  P  P18  1  0.28510000  0.87490000  0.07490000  1.0
  P  P19  1  0.66620000  0.83250000  0.16940000  1.0
  P  P20  1  0.21490000  0.37490000  0.42510000  1.0
  P  P21  1  0.83380000  0.33250000  0.33060000  1.0
  P  P22  1  0.71490000  0.87490000  0.42510000  1.0
  P  P23  1  0.33380000  0.83250000  0.33060000  1.0
  P  P24  1  0.21490000  0.62510000  0.92510000  1.0
  P  P25  1  0.83380000  0.66750000  0.83060000  1.0
  P  P26  1  0.71490000  0.12510000  0.92510000  1.0
  P  P27  1  0.33380000  0.16750000  0.83060000  1.0
  P  P28  1  0.78510000  0.62510000  0.57490000  1.0
  P  P29  1  0.16620000  0.66750000  0.66940000  1.0
  P  P30  1  0.28510000  0.12510000  0.57490000  1.0
  P  P31  1  0.66620000  0.16750000  0.66940000  1.0
  H  H32  1  0.88640000  0.20090000  0.06830000  1.0
  H  H33  1  0.86610000  0.22110000  0.14700000  1.0
  H  H34  1  0.04300000  0.19290000  0.18260000  1.0
  H  H35  1  0.06680000  0.18880000  0.10410000  1.0
  H  H36  1  0.98730000  0.38540000  0.07910000  1.0
  H  H37  1  0.96910000  0.39990000  0.15850000  1.0
  H  H38  1  0.38640000  0.70090000  0.06830000  1.0
  H  H39  1  0.36610000  0.72110000  0.14700000  1.0
  H  H40  1  0.54300000  0.69290000  0.18260000  1.0
  H  H41  1  0.56680000  0.68880000  0.10410000  1.0
  H  H42  1  0.48730000  0.88540000  0.07910000  1.0
  H  H43  1  0.46910000  0.89990000  0.15850000  1.0
  H  H44  1  0.11360000  0.20090000  0.43170000  1.0
  H  H45  1  0.13390000  0.22110000  0.35300000  1.0
  H  H46  1  0.95700000  0.19290000  0.31740000  1.0
  H  H47  1  0.93320000  0.18880000  0.39590000  1.0
  H  H48  1  0.01270000  0.38540000  0.42090000  1.0
  H  H49  1  0.03090000  0.39990000  0.34150000  1.0
  H  H50  1  0.61360000  0.70090000  0.43170000  1.0
  H  H51  1  0.63390000  0.72110000  0.35300000  1.0
  H  H52  1  0.45700000  0.69290000  0.31740000  1.0
  H  H53  1  0.43320000  0.68880000  0.39590000  1.0
  H  H54  1  0.51270000  0.88540000  0.42090000  1.0
  H  H55  1  0.53090000  0.89990000  0.34150000  1.0
  H  H56  1  0.11360000  0.79910000  0.93170000  1.0
  H  H57  1  0.13390000  0.77890000  0.85300000  1.0
  H  H58  1  0.95700000  0.80710000  0.81740000  1.0
  H  H59  1  0.93320000  0.81120000  0.89590000  1.0
  H  H60  1  0.01270000  0.61460000  0.92090000  1.0
  H  H61  1  0.03090000  0.60010000  0.84150000  1.0
  H  H62  1  0.61360000  0.29910000  0.93170000  1.0
  H  H63  1  0.63390000  0.27890000  0.85300000  1.0
  H  H64  1  0.45700000  0.30710000  0.81740000  1.0
  H  H65  1  0.43320000  0.31120000  0.89590000  1.0
  H  H66  1  0.51270000  0.11460000  0.92090000  1.0
  H  H67  1  0.53090000  0.10010000  0.84150000  1.0
  H  H68  1  0.88640000  0.79910000  0.56830000  1.0
  H  H69  1  0.86610000  0.77890000  0.64700000  1.0
  H  H70  1  0.04300000  0.80710000  0.68260000  1.0
  H  H71  1  0.06680000  0.81120000  0.60410000  1.0
  H  H72  1  0.98730000  0.61460000  0.57910000  1.0
  H  H73  1  0.96910000  0.60010000  0.65850000  1.0
  H  H74  1  0.38640000  0.29910000  0.56830000  1.0
  H  H75  1  0.36610000  0.27890000  0.64700000  1.0
  H  H76  1  0.54300000  0.30710000  0.68260000  1.0
  H  H77  1  0.56680000  0.31120000  0.60410000  1.0
  H  H78  1  0.48730000  0.11460000  0.57910000  1.0
  H  H79  1  0.46910000  0.10010000  0.65850000  1.0
  C  C80  1  0.88060000  0.26610000  0.10460000  1.0
  C  C81  1  0.05790000  0.24650000  0.14330000  1.0
  C  C82  1  0.97450000  0.33720000  0.12090000  1.0
  C  C83  1  0.38060000  0.76610000  0.10460000  1.0
  C  C84  1  0.55790000  0.74650000  0.14330000  1.0
  C  C85  1  0.47450000  0.83720000  0.12090000  1.0
  C  C86  1  0.11940000  0.26610000  0.39540000  1.0
  C  C87  1  0.94210000  0.24650000  0.35670000  1.0
  C  C88  1  0.02550000  0.33720000  0.37910000  1.0
  C  C89  1  0.61940000  0.76610000  0.39540000  1.0
  C  C90  1  0.44210000  0.74650000  0.35670000  1.0
  C  C91  1  0.52550000  0.83720000  0.37910000  1.0
  C  C92  1  0.11940000  0.73390000  0.89540000  1.0
  C  C93  1  0.94210000  0.75350000  0.85670000  1.0
  C  C94  1  0.02550000  0.66280000  0.87910000  1.0
  C  C95  1  0.61940000  0.23390000  0.89540000  1.0
  C  C96  1  0.44210000  0.25350000  0.85670000  1.0
  C  C97  1  0.52550000  0.16280000  0.87910000  1.0
  C  C98  1  0.88060000  0.73390000  0.60460000  1.0
  C  C99  1  0.05790000  0.75350000  0.64330000  1.0
  C  C100  1  0.97450000  0.66280000  0.62090000  1.0
  C  C101  1  0.38060000  0.23390000  0.60460000  1.0
  C  C102  1  0.55790000  0.25350000  0.64330000  1.0
  C  C103  1  0.47450000  0.16280000  0.62090000  1.0
  O  O104  1  0.79640000  0.42540000  0.00060000  1.0
  O  O105  1  0.69220000  0.30030000  0.07590000  1.0
  O  O106  1  0.15550000  0.40270000  0.23880000  1.0
  O  O107  1  0.18290000  0.42880000  0.10980000  1.0
  O  O108  1  0.78890000  0.49360000  0.12320000  1.0
  O  O109  1  0.24710000  0.23350000  0.17590000  1.0
  O  O110  1  0.19090000  0.65130000  0.19050000  1.0
  O  O111  1  0.29640000  0.92540000  0.00060000  1.0
  O  O112  1  0.19220000  0.80030000  0.07590000  1.0
  O  O113  1  0.65550000  0.90270000  0.23880000  1.0
  O  O114  1  0.68290000  0.92880000  0.10980000  1.0
  O  O115  1  0.28890000  0.99360000  0.12320000  1.0
  O  O116  1  0.74710000  0.73350000  0.17590000  1.0
  O  O117  1  0.69090000  0.15130000  0.19050000  1.0
  O  O118  1  0.20360000  0.42540000  0.49940000  1.0
  O  O119  1  0.30780000  0.30030000  0.42410000  1.0
  O  O120  1  0.84450000  0.40270000  0.26120000  1.0
  O  O121  1  0.81710000  0.42880000  0.39020000  1.0
  O  O122  1  0.21110000  0.49360000  0.37680000  1.0
  O  O123  1  0.75290000  0.23350000  0.32410000  1.0
  O  O124  1  0.80910000  0.65130000  0.30950000  1.0
  O  O125  1  0.70360000  0.92540000  0.49940000  1.0
  O  O126  1  0.80780000  0.80030000  0.42410000  1.0
  O  O127  1  0.34450000  0.90270000  0.26120000  1.0
  O  O128  1  0.31710000  0.92880000  0.39020000  1.0
  O  O129  1  0.71110000  0.99360000  0.37680000  1.0
  O  O130  1  0.25290000  0.73350000  0.32410000  1.0
  O  O131  1  0.30910000  0.15130000  0.30950000  1.0
  O  O132  1  0.20360000  0.57460000  0.99940000  1.0
  O  O133  1  0.30780000  0.69970000  0.92410000  1.0
  O  O134  1  0.84450000  0.59730000  0.76120000  1.0
  O  O135  1  0.81710000  0.57120000  0.89020000  1.0
  O  O136  1  0.21110000  0.50640000  0.87680000  1.0
  O  O137  1  0.75290000  0.76650000  0.82410000  1.0
  O  O138  1  0.80910000  0.34870000  0.80950000  1.0
  O  O139  1  0.70360000  0.07460000  0.99940000  1.0
  O  O140  1  0.80780000  0.19970000  0.92410000  1.0
  O  O141  1  0.34450000  0.09730000  0.76120000  1.0
  O  O142  1  0.31710000  0.07120000  0.89020000  1.0
  O  O143  1  0.71110000  0.00640000  0.87680000  1.0
  O  O144  1  0.25290000  0.26650000  0.82410000  1.0
  O  O145  1  0.30910000  0.84870000  0.80950000  1.0
  O  O146  1  0.79640000  0.57460000  0.50060000  1.0
  O  O147  1  0.69220000  0.69970000  0.57590000  1.0
  O  O148  1  0.15550000  0.59730000  0.73880000  1.0
  O  O149  1  0.18290000  0.57120000  0.60980000  1.0
  O  O150  1  0.78890000  0.50640000  0.62320000  1.0
  O  O151  1  0.24710000  0.76650000  0.67590000  1.0
  O  O152  1  0.19090000  0.34870000  0.69050000  1.0
  O  O153  1  0.29640000  0.07460000  0.50060000  1.0
  O  O154  1  0.19220000  0.19970000  0.57590000  1.0
  O  O155  1  0.65550000  0.09730000  0.73880000  1.0
  O  O156  1  0.68290000  0.07120000  0.60980000  1.0
  O  O157  1  0.28890000  0.00640000  0.62320000  1.0
  O  O158  1  0.74710000  0.26650000  0.67590000  1.0
  O  O159  1  0.69090000  0.84870000  0.69050000  1.0
