# generated using pymatgen
data_Y2H6(C7O4)3
_symmetry_space_group_name_H-M   'P 1'
_cell_length_a   9.86050000
_cell_length_b   29.21000000
_cell_length_c   10.86520000
_cell_angle_alpha   90.00000000
_cell_angle_beta   92.20300000
_cell_angle_gamma   90.00000000
_symmetry_Int_Tables_number   1
_chemical_formula_structural   Y2H6(C7O4)3
_chemical_formula_sum   'Y8 H24 C84 O48'
_cell_volume   3127.13849563
_cell_formula_units_Z   4
loop_
 _symmetry_equiv_pos_site_id
 _symmetry_equiv_pos_as_xyz
  1  'x, y, z'
loop_
 _atom_site_type_symbol
 _atom_site_label
 _atom_site_symmetry_multiplicity
 _atom_site_fract_x
 _atom_site_fract_y
 _atom_site_fract_z
 _atom_site_occupancy
  Y  Y0  1  0.45448000  0.41856000  0.95841000  1.0
  Y  Y1  1  0.45957000  0.25166000  0.23669000  1.0
  Y  Y2  1  0.54552000  0.91856000  0.54159000  1.0
  Y  Y3  1  0.54043000  0.75166000  0.26331000  1.0
  Y  Y4  1  0.54552000  0.58144000  0.04159000  1.0
  Y  Y5  1  0.54043000  0.74834000  0.76331000  1.0
  Y  Y6  1  0.45448000  0.08145000  0.45841000  1.0
  Y  Y7  1  0.45957000  0.24834000  0.73669000  1.0
  H  H8  1  0.01330000  0.40750000  0.83560000  1.0
  H  H9  1  0.78100000  0.39270000  0.83560000  1.0
  H  H10  1  0.90630000  0.20990000  0.15550000  1.0
  H  H11  1  0.13300000  0.21340000  0.10590000  1.0
  H  H12  1  0.05740000  0.48240000  0.31010000  1.0
  H  H13  1  0.17400000  0.51390000  0.73490000  1.0
  H  H14  1  0.98670000  0.90750000  0.66440000  1.0
  H  H15  1  0.21900000  0.89270000  0.66440000  1.0
  H  H16  1  0.09370000  0.70990000  0.34450000  1.0
  H  H17  1  0.86700000  0.71340000  0.39410000  1.0
  H  H18  1  0.94260000  0.98240000  0.18990000  1.0
  H  H19  1  0.82600000  0.01390000  0.76510000  1.0
  H  H20  1  0.98670000  0.59250000  0.16440000  1.0
  H  H21  1  0.21900000  0.60730000  0.16440000  1.0
  H  H22  1  0.09370000  0.79010000  0.84450000  1.0
  H  H23  1  0.86700000  0.78660000  0.89410000  1.0
  H  H24  1  0.94260000  0.51760000  0.68990000  1.0
  H  H25  1  0.82600000  0.48610000  0.26510000  1.0
  H  H26  1  0.01330000  0.09250000  0.33560000  1.0
  H  H27  1  0.78100000  0.10730000  0.33560000  1.0
  H  H28  1  0.90630000  0.29010000  0.65550000  1.0
  H  H29  1  0.13300000  0.28660000  0.60590000  1.0
  H  H30  1  0.05740000  0.01760000  0.81010000  1.0
  H  H31  1  0.17400000  0.98610000  0.23490000  1.0
  C  C32  1  0.07490000  0.34892000  0.91260000  1.0
  C  C33  1  0.98280000  0.38012000  0.86830000  1.0
  C  C34  1  0.84190000  0.37174000  0.87080000  1.0
  C  C35  1  0.79410000  0.33279000  0.92500000  1.0
  C  C36  1  0.88730000  0.30112000  0.98270000  1.0
  C  C37  1  0.84310000  0.26445000  0.05850000  1.0
  C  C38  1  0.93540000  0.23335000  0.10490000  1.0
  C  C39  1  0.07350000  0.23608000  0.07740000  1.0
  C  C40  1  0.12130000  0.27134000  0.00990000  1.0
  C  C41  1  0.03000000  0.30705000  0.96620000  1.0
  C  C42  1  0.21830000  0.36542000  0.92030000  1.0
  C  C43  1  0.64600000  0.32248000  0.90080000  1.0
  C  C44  1  0.70250000  0.26168000  0.10580000  1.0
  C  C45  1  0.26610000  0.26758000  0.97120000  1.0
  C  C46  1  0.02640000  0.48603000  0.22870000  1.0
  C  C47  1  0.11730000  0.48905000  0.13910000  1.0
  C  C48  1  0.26270000  0.47647000  0.17290000  1.0
  C  C49  1  0.07160000  0.49891000  0.01430000  1.0
  C  C50  1  0.16170000  0.50630000  0.91750000  1.0
  C  C51  1  0.31040000  0.51416000  0.94110000  1.0
  C  C52  1  0.11350000  0.51170000  0.79820000  1.0
  C  C53  1  0.92510000  0.84892000  0.58740000  1.0
  C  C54  1  0.01720000  0.88012000  0.63170000  1.0
  C  C55  1  0.15810000  0.87174000  0.62920000  1.0
  C  C56  1  0.20590000  0.83279000  0.57500000  1.0
  C  C57  1  0.11270000  0.80112000  0.51730000  1.0
  C  C58  1  0.15690000  0.76445000  0.44150000  1.0
  C  C59  1  0.06460000  0.73335000  0.39510000  1.0
  C  C60  1  0.92650000  0.73608000  0.42260000  1.0
  C  C61  1  0.87870000  0.77134000  0.49010000  1.0
  C  C62  1  0.97000000  0.80705000  0.53380000  1.0
  C  C63  1  0.78170000  0.86542000  0.57970000  1.0
  C  C64  1  0.35400000  0.82248000  0.59920000  1.0
  C  C65  1  0.29750000  0.76168000  0.39420000  1.0
  C  C66  1  0.73390000  0.76758000  0.52880000  1.0
  C  C67  1  0.97360000  0.98603000  0.27130000  1.0
  C  C68  1  0.88270000  0.98905000  0.36090000  1.0
  C  C69  1  0.73730000  0.97647000  0.32710000  1.0
  C  C70  1  0.92840000  0.99891000  0.48570000  1.0
  C  C71  1  0.83830000  0.00630000  0.58250000  1.0
  C  C72  1  0.68960000  0.01416000  0.55890000  1.0
  C  C73  1  0.88650000  0.01170000  0.70180000  1.0
  C  C74  1  0.92510000  0.65108000  0.08740000  1.0
  C  C75  1  0.01720000  0.61988000  0.13170000  1.0
  C  C76  1  0.15810000  0.62826000  0.12920000  1.0
  C  C77  1  0.20590000  0.66721000  0.07500000  1.0
  C  C78  1  0.11270000  0.69888000  0.01730000  1.0
  C  C79  1  0.15690000  0.73555000  0.94150000  1.0
  C  C80  1  0.06460000  0.76665000  0.89510000  1.0
  C  C81  1  0.92650000  0.76392000  0.92260000  1.0
  C  C82  1  0.87870000  0.72866000  0.99010000  1.0
  C  C83  1  0.97000000  0.69295000  0.03380000  1.0
  C  C84  1  0.78170000  0.63458000  0.07970000  1.0
  C  C85  1  0.35400000  0.67752000  0.09920000  1.0
  C  C86  1  0.29750000  0.73832000  0.89420000  1.0
  C  C87  1  0.73390000  0.73242000  0.02880000  1.0
  C  C88  1  0.97360000  0.51397000  0.77130000  1.0
  C  C89  1  0.88270000  0.51095000  0.86090000  1.0
  C  C90  1  0.73730000  0.52353000  0.82710000  1.0
  C  C91  1  0.92840000  0.50109000  0.98570000  1.0
  C  C92  1  0.83830000  0.49370000  0.08250000  1.0
  C  C93  1  0.68960000  0.48584000  0.05890000  1.0
  C  C94  1  0.88650000  0.48830000  0.20180000  1.0
  C  C95  1  0.07490000  0.15108000  0.41260000  1.0
  C  C96  1  0.98280000  0.11988000  0.36830000  1.0
  C  C97  1  0.84190000  0.12826000  0.37080000  1.0
  C  C98  1  0.79410000  0.16721000  0.42500000  1.0
  C  C99  1  0.88730000  0.19888000  0.48270000  1.0
  C  C100  1  0.84310000  0.23555000  0.55850000  1.0
  C  C101  1  0.93540000  0.26665000  0.60490000  1.0
  C  C102  1  0.07350000  0.26392000  0.57740000  1.0
  C  C103  1  0.12130000  0.22866000  0.50990000  1.0
  C  C104  1  0.03000000  0.19295000  0.46620000  1.0
  C  C105  1  0.21830000  0.13458000  0.42030000  1.0
  C  C106  1  0.64600000  0.17752000  0.40080000  1.0
  C  C107  1  0.70250000  0.23832000  0.60580000  1.0
  C  C108  1  0.26610000  0.23242000  0.47120000  1.0
  C  C109  1  0.02640000  0.01397000  0.72870000  1.0
  C  C110  1  0.11730000  0.01095000  0.63910000  1.0
  C  C111  1  0.26270000  0.02353000  0.67290000  1.0
  C  C112  1  0.07160000  0.00109000  0.51430000  1.0
  C  C113  1  0.16170000  0.99370000  0.41750000  1.0
  C  C114  1  0.31040000  0.98584000  0.44110000  1.0
  C  C115  1  0.11350000  0.98830000  0.29820000  1.0
  O  O116  1  0.26260000  0.39038000  0.83470000  1.0
  O  O117  1  0.29090000  0.35843000  0.01560000  1.0
  O  O118  1  0.56270000  0.35445000  0.90370000  1.0
  O  O119  1  0.61550000  0.28236000  0.87000000  1.0
  O  O120  1  0.64550000  0.29649000  0.14660000  1.0
  O  O121  1  0.64440000  0.22301000  0.11140000  1.0
  O  O122  1  0.28720000  0.27274000  0.85920000  1.0
  O  O123  1  0.35530000  0.25522000  0.04920000  1.0
  O  O124  1  0.31350000  0.49080000  0.27330000  1.0
  O  O125  1  0.32230000  0.44993000  0.10160000  1.0
  O  O126  1  0.34150000  0.54595000  0.01410000  1.0
  O  O127  1  0.39310000  0.49032000  0.88390000  1.0
  O  O128  1  0.73740000  0.89038000  0.66530000  1.0
  O  O129  1  0.70910000  0.85843000  0.48440000  1.0
  O  O130  1  0.43730000  0.85445000  0.59630000  1.0
  O  O131  1  0.38450000  0.78236000  0.63000000  1.0
  O  O132  1  0.35450000  0.79649000  0.35340000  1.0
  O  O133  1  0.35560000  0.72301000  0.38860000  1.0
  O  O134  1  0.71280000  0.77274000  0.64080000  1.0
  O  O135  1  0.64470000  0.75522000  0.45080000  1.0
  O  O136  1  0.68650000  0.99080000  0.22670000  1.0
  O  O137  1  0.67770000  0.94993000  0.39840000  1.0
  O  O138  1  0.65850000  0.04595000  0.48590000  1.0
  O  O139  1  0.60690000  0.99032000  0.61610000  1.0
  O  O140  1  0.73740000  0.60962000  0.16530000  1.0
  O  O141  1  0.70910000  0.64157000  0.98440000  1.0
  O  O142  1  0.43730000  0.64555000  0.09630000  1.0
  O  O143  1  0.38450000  0.71764000  0.13000000  1.0
  O  O144  1  0.35450000  0.70351000  0.85340000  1.0
  O  O145  1  0.35560000  0.77699000  0.88860000  1.0
  O  O146  1  0.71280000  0.72726000  0.14080000  1.0
  O  O147  1  0.64470000  0.74478000  0.95080000  1.0
  O  O148  1  0.68650000  0.50920000  0.72670000  1.0
  O  O149  1  0.67770000  0.55007000  0.89840000  1.0
  O  O150  1  0.65850000  0.45405000  0.98590000  1.0
  O  O151  1  0.60690000  0.50968000  0.11610000  1.0
  O  O152  1  0.26260000  0.10962000  0.33470000  1.0
  O  O153  1  0.29090000  0.14157000  0.51560000  1.0
  O  O154  1  0.56270000  0.14555000  0.40370000  1.0
  O  O155  1  0.61550000  0.21764000  0.37000000  1.0
  O  O156  1  0.64550000  0.20351000  0.64660000  1.0
  O  O157  1  0.64440000  0.27699000  0.61140000  1.0
  O  O158  1  0.28720000  0.22726000  0.35920000  1.0
  O  O159  1  0.35530000  0.24478000  0.54920000  1.0
  O  O160  1  0.31350000  0.00920000  0.77330000  1.0
  O  O161  1  0.32230000  0.05007000  0.60160000  1.0
  O  O162  1  0.34150000  0.95405000  0.51410000  1.0
  O  O163  1  0.39310000  0.00968000  0.38390000  1.0
