# generated using pymatgen
data_AgH12(C3N)6
_symmetry_space_group_name_H-M   'P 1'
_cell_length_a   22.00200000
_cell_length_b   16.73560000
_cell_length_c   25.56070000
_cell_angle_alpha   90.00000000
_cell_angle_beta   115.19900000
_cell_angle_gamma   90.00000000
_symmetry_Int_Tables_number   1
_chemical_formula_structural   AgH12(C3N)6
_chemical_formula_sum   'Ag16 H192 C288 N96'
_cell_volume   8516.18984011
_cell_formula_units_Z   16
loop_
 _symmetry_equiv_pos_site_id
 _symmetry_equiv_pos_as_xyz
  1  'x, y, z'
loop_
 _atom_site_type_symbol
 _atom_site_label
 _atom_site_symmetry_multiplicity
 _atom_site_fract_x
 _atom_site_fract_y
 _atom_site_fract_z
 _atom_site_occupancy
  Ag  Ag0  1  0.84423000  0.95667000  0.36683000  1.0
  Ag  Ag1  1  0.82171000  0.25616000  0.86644000  1.0
  Ag  Ag2  1  0.34423000  0.45667000  0.36683000  1.0
  Ag  Ag3  1  0.32171000  0.75616000  0.86644000  1.0
  Ag  Ag4  1  0.15577000  0.95667000  0.13317000  1.0
  Ag  Ag5  1  0.17829000  0.25616000  0.63356000  1.0
  Ag  Ag6  1  0.65577000  0.45667000  0.13317000  1.0
  Ag  Ag7  1  0.67829000  0.75616000  0.63356000  1.0
  Ag  Ag8  1  0.15577000  0.04333000  0.63317000  1.0
  Ag  Ag9  1  0.17829000  0.74384000  0.13356000  1.0
  Ag  Ag10  1  0.65577000  0.54333000  0.63317000  1.0
  Ag  Ag11  1  0.67829000  0.24384000  0.13356000  1.0
  Ag  Ag12  1  0.84423000  0.04333000  0.86683000  1.0
  Ag  Ag13  1  0.82171000  0.74384000  0.36644000  1.0
  Ag  Ag14  1  0.34423000  0.54333000  0.86683000  1.0
  Ag  Ag15  1  0.32171000  0.24384000  0.36644000  1.0
  H  H16  1  0.55400000  0.28960000  0.38760000  1.0
  H  H17  1  0.02350000  0.38340000  0.03480000  1.0
  H  H18  1  0.81970000  0.08770000  0.54370000  1.0
  H  H19  1  0.92460000  0.31690000  0.98320000  1.0
  H  H20  1  0.29780000  0.63480000  0.04850000  1.0
  H  H21  1  0.20040000  0.65740000  0.85080000  1.0
  H  H22  1  0.13480000  0.43800000  0.15870000  1.0
  H  H23  1  0.71380000  0.05730000  0.34760000  1.0
  H  H24  1  0.54320000  0.33040000  0.53760000  1.0
  H  H25  1  0.44530000  0.39590000  0.48800000  1.0
  H  H26  1  0.14480000  0.58670000  0.89460000  1.0
  H  H27  1  0.34780000  0.70550000  0.99930000  1.0
  H  H28  1  0.66190000  0.13170000  0.39190000  1.0
  H  H29  1  0.45560000  0.35940000  0.34240000  1.0
  H  H30  1  0.86700000  0.01750000  0.49340000  1.0
  H  H31  1  0.01920000  0.45710000  0.88420000  1.0
  H  H32  1  0.34950000  0.52230000  0.26150000  1.0
  H  H33  1  0.18820000  0.42320000  0.25760000  1.0
  H  H34  1  0.92450000  0.38260000  0.83760000  1.0
  H  H35  1  0.72620000  0.33000000  0.75240000  1.0
  H  H36  1  0.30190000  0.54030000  0.16380000  1.0
  H  H37  1  0.67490000  0.31460000  0.65440000  1.0
  H  H38  1  0.82500000  0.16830000  0.66730000  1.0
  H  H39  1  0.86700000  0.18300000  0.76480000  1.0
  H  H40  1  0.05400000  0.78960000  0.38760000  1.0
  H  H41  1  0.52350000  0.88340000  0.03480000  1.0
  H  H42  1  0.31970000  0.58770000  0.54370000  1.0
  H  H43  1  0.42460000  0.81690000  0.98320000  1.0
  H  H44  1  0.79780000  0.13480000  0.04850000  1.0
  H  H45  1  0.70040000  0.15740000  0.85080000  1.0
  H  H46  1  0.63480000  0.93800000  0.15870000  1.0
  H  H47  1  0.21380000  0.55730000  0.34760000  1.0
  H  H48  1  0.04320000  0.83040000  0.53760000  1.0
  H  H49  1  0.94530000  0.89590000  0.48800000  1.0
  H  H50  1  0.64480000  0.08670000  0.89460000  1.0
  H  H51  1  0.84780000  0.20550000  0.99930000  1.0
  H  H52  1  0.16190000  0.63170000  0.39190000  1.0
  H  H53  1  0.95560000  0.85940000  0.34240000  1.0
  H  H54  1  0.36700000  0.51750000  0.49340000  1.0
  H  H55  1  0.51920000  0.95710000  0.88420000  1.0
  H  H56  1  0.84950000  0.02230000  0.26150000  1.0
  H  H57  1  0.68820000  0.92320000  0.25760000  1.0
  H  H58  1  0.42450000  0.88260000  0.83760000  1.0
  H  H59  1  0.22620000  0.83000000  0.75240000  1.0
  H  H60  1  0.80190000  0.04030000  0.16380000  1.0
  H  H61  1  0.17490000  0.81460000  0.65440000  1.0
  H  H62  1  0.32500000  0.66830000  0.66730000  1.0
  H  H63  1  0.36700000  0.68300000  0.76480000  1.0
  H  H64  1  0.44600000  0.28960000  0.11240000  1.0
  H  H65  1  0.97650000  0.38340000  0.46520000  1.0
  H  H66  1  0.18030000  0.08770000  0.95630000  1.0
  H  H67  1  0.07540000  0.31690000  0.51680000  1.0
  H  H68  1  0.70220000  0.63480000  0.45150000  1.0
  H  H69  1  0.79960000  0.65740000  0.64920000  1.0
  H  H70  1  0.86520000  0.43800000  0.34130000  1.0
  H  H71  1  0.28620000  0.05730000  0.15240000  1.0
  H  H72  1  0.45680000  0.33040000  0.96240000  1.0
  H  H73  1  0.55470000  0.39590000  0.01200000  1.0
  H  H74  1  0.85520000  0.58670000  0.60540000  1.0
  H  H75  1  0.65220000  0.70550000  0.50070000  1.0
  H  H76  1  0.33810000  0.13170000  0.10810000  1.0
  H  H77  1  0.54440000  0.35940000  0.15760000  1.0
  H  H78  1  0.13300000  0.01750000  0.00660000  1.0
  H  H79  1  0.98080000  0.45710000  0.61580000  1.0
  H  H80  1  0.65050000  0.52230000  0.23850000  1.0
  H  H81  1  0.81180000  0.42320000  0.24240000  1.0
  H  H82  1  0.07550000  0.38260000  0.66240000  1.0
  H  H83  1  0.27380000  0.33000000  0.74760000  1.0
  H  H84  1  0.69810000  0.54030000  0.33620000  1.0
  H  H85  1  0.32510000  0.31460000  0.84560000  1.0
  H  H86  1  0.17500000  0.16830000  0.83270000  1.0
  H  H87  1  0.13300000  0.18300000  0.73520000  1.0
  H  H88  1  0.94600000  0.78960000  0.11240000  1.0
  H  H89  1  0.47650000  0.88340000  0.46520000  1.0
  H  H90  1  0.68030000  0.58770000  0.95630000  1.0
  H  H91  1  0.57540000  0.81690000  0.51680000  1.0
  H  H92  1  0.20220000  0.13480000  0.45150000  1.0
  H  H93  1  0.29960000  0.15740000  0.64920000  1.0
  H  H94  1  0.36520000  0.93800000  0.34130000  1.0
  H  H95  1  0.78620000  0.55730000  0.15240000  1.0
  H  H96  1  0.95680000  0.83040000  0.96240000  1.0
  H  H97  1  0.05470000  0.89590000  0.01200000  1.0
  H  H98  1  0.35520000  0.08670000  0.60540000  1.0
  H  H99  1  0.15220000  0.20550000  0.50070000  1.0
  H  H100  1  0.83810000  0.63170000  0.10810000  1.0
  H  H101  1  0.04440000  0.85940000  0.15760000  1.0
  H  H102  1  0.63300000  0.51750000  0.00660000  1.0
  H  H103  1  0.48080000  0.95710000  0.61580000  1.0
  H  H104  1  0.15050000  0.02230000  0.23850000  1.0
  H  H105  1  0.31180000  0.92320000  0.24240000  1.0
  H  H106  1  0.57550000  0.88260000  0.66240000  1.0
  H  H107  1  0.77380000  0.83000000  0.74760000  1.0
  H  H108  1  0.19810000  0.04030000  0.33620000  1.0
  H  H109  1  0.82510000  0.81460000  0.84560000  1.0
  H  H110  1  0.67500000  0.66830000  0.83270000  1.0
  H  H111  1  0.63300000  0.68300000  0.73520000  1.0
  H  H112  1  0.44600000  0.71040000  0.61240000  1.0
  H  H113  1  0.97650000  0.61660000  0.96520000  1.0
  H  H114  1  0.18030000  0.91230000  0.45630000  1.0
  H  H115  1  0.07540000  0.68310000  0.01680000  1.0
  H  H116  1  0.70220000  0.36520000  0.95150000  1.0
  H  H117  1  0.79960000  0.34260000  0.14920000  1.0
  H  H118  1  0.86520000  0.56200000  0.84130000  1.0
  H  H119  1  0.28620000  0.94270000  0.65240000  1.0
  H  H120  1  0.45680000  0.66960000  0.46240000  1.0
  H  H121  1  0.55470000  0.60410000  0.51200000  1.0
  H  H122  1  0.85520000  0.41330000  0.10540000  1.0
  H  H123  1  0.65220000  0.29450000  0.00070000  1.0
  H  H124  1  0.33810000  0.86830000  0.60810000  1.0
  H  H125  1  0.54440000  0.64060000  0.65760000  1.0
  H  H126  1  0.13300000  0.98250000  0.50660000  1.0
  H  H127  1  0.98080000  0.54290000  0.11580000  1.0
  H  H128  1  0.65050000  0.47770000  0.73850000  1.0
  H  H129  1  0.81180000  0.57680000  0.74240000  1.0
  H  H130  1  0.07550000  0.61740000  0.16240000  1.0
  H  H131  1  0.27380000  0.67000000  0.24760000  1.0
  H  H132  1  0.69810000  0.45970000  0.83620000  1.0
  H  H133  1  0.32510000  0.68540000  0.34560000  1.0
  H  H134  1  0.17500000  0.83170000  0.33270000  1.0
  H  H135  1  0.13300000  0.81700000  0.23520000  1.0
  H  H136  1  0.94600000  0.21040000  0.61240000  1.0
  H  H137  1  0.47650000  0.11660000  0.96520000  1.0
  H  H138  1  0.68030000  0.41230000  0.45630000  1.0
  H  H139  1  0.57540000  0.18310000  0.01680000  1.0
  H  H140  1  0.20220000  0.86520000  0.95150000  1.0
  H  H141  1  0.29960000  0.84260000  0.14920000  1.0
  H  H142  1  0.36520000  0.06200000  0.84130000  1.0
  H  H143  1  0.78620000  0.44270000  0.65240000  1.0
  H  H144  1  0.95680000  0.16960000  0.46240000  1.0
  H  H145  1  0.05470000  0.10410000  0.51200000  1.0
  H  H146  1  0.35520000  0.91330000  0.10540000  1.0
  H  H147  1  0.15220000  0.79450000  0.00070000  1.0
  H  H148  1  0.83810000  0.36830000  0.60810000  1.0
  H  H149  1  0.04440000  0.14060000  0.65760000  1.0
  H  H150  1  0.63300000  0.48250000  0.50660000  1.0
  H  H151  1  0.48080000  0.04290000  0.11580000  1.0
  H  H152  1  0.15050000  0.97770000  0.73850000  1.0
  H  H153  1  0.31180000  0.07680000  0.74240000  1.0
  H  H154  1  0.57550000  0.11740000  0.16240000  1.0
  H  H155  1  0.77380000  0.17000000  0.24760000  1.0
  H  H156  1  0.19810000  0.95970000  0.83620000  1.0
  H  H157  1  0.82510000  0.18540000  0.34560000  1.0
  H  H158  1  0.67500000  0.33170000  0.33270000  1.0
  H  H159  1  0.63300000  0.31700000  0.23520000  1.0
  H  H160  1  0.55400000  0.71040000  0.88760000  1.0
  H  H161  1  0.02350000  0.61660000  0.53480000  1.0
  H  H162  1  0.81970000  0.91230000  0.04370000  1.0
  H  H163  1  0.92460000  0.68310000  0.48320000  1.0
  H  H164  1  0.29780000  0.36520000  0.54850000  1.0
  H  H165  1  0.20040000  0.34260000  0.35080000  1.0
  H  H166  1  0.13480000  0.56200000  0.65870000  1.0
  H  H167  1  0.71380000  0.94270000  0.84760000  1.0
  H  H168  1  0.54320000  0.66960000  0.03760000  1.0
  H  H169  1  0.44530000  0.60410000  0.98800000  1.0
  H  H170  1  0.14480000  0.41330000  0.39460000  1.0
  H  H171  1  0.34780000  0.29450000  0.49930000  1.0
  H  H172  1  0.66190000  0.86830000  0.89190000  1.0
  H  H173  1  0.45560000  0.64060000  0.84240000  1.0
  H  H174  1  0.86700000  0.98250000  0.99340000  1.0
  H  H175  1  0.01920000  0.54290000  0.38420000  1.0
  H  H176  1  0.34950000  0.47770000  0.76150000  1.0
  H  H177  1  0.18820000  0.57680000  0.75760000  1.0
  H  H178  1  0.92450000  0.61740000  0.33760000  1.0
  H  H179  1  0.72620000  0.67000000  0.25240000  1.0
  H  H180  1  0.30190000  0.45970000  0.66380000  1.0
  H  H181  1  0.67490000  0.68540000  0.15440000  1.0
  H  H182  1  0.82500000  0.83170000  0.16730000  1.0
  H  H183  1  0.86700000  0.81700000  0.26480000  1.0
  H  H184  1  0.05400000  0.21040000  0.88760000  1.0
  H  H185  1  0.52350000  0.11660000  0.53480000  1.0
  H  H186  1  0.31970000  0.41230000  0.04370000  1.0
  H  H187  1  0.42460000  0.18310000  0.48320000  1.0
  H  H188  1  0.79780000  0.86520000  0.54850000  1.0
  H  H189  1  0.70040000  0.84260000  0.35080000  1.0
  H  H190  1  0.63480000  0.06200000  0.65870000  1.0
  H  H191  1  0.21380000  0.44270000  0.84760000  1.0
  H  H192  1  0.04320000  0.16960000  0.03760000  1.0
  H  H193  1  0.94530000  0.10410000  0.98800000  1.0
  H  H194  1  0.64480000  0.91330000  0.39460000  1.0
  H  H195  1  0.84780000  0.79450000  0.49930000  1.0
  H  H196  1  0.16190000  0.36830000  0.89190000  1.0
  H  H197  1  0.95560000  0.14060000  0.84240000  1.0
  H  H198  1  0.36700000  0.48250000  0.99340000  1.0
  H  H199  1  0.51920000  0.04290000  0.38420000  1.0
  H  H200  1  0.84950000  0.97770000  0.76150000  1.0
  H  H201  1  0.68820000  0.07680000  0.75760000  1.0
  H  H202  1  0.42450000  0.11740000  0.33760000  1.0
  H  H203  1  0.22620000  0.17000000  0.25240000  1.0
  H  H204  1  0.80190000  0.95970000  0.66380000  1.0
  H  H205  1  0.17490000  0.18540000  0.15440000  1.0
  H  H206  1  0.32500000  0.33170000  0.16730000  1.0
  H  H207  1  0.36700000  0.31700000  0.26480000  1.0
  C  C208  1  0.09760000  0.47160000  0.99910000  1.0
  C  C209  1  0.53260000  0.31030000  0.40900000  1.0
  C  C210  1  0.62340000  0.25570000  0.50030000  1.0
  C  C211  1  0.00370000  0.38500000  0.99460000  1.0
  C  C212  1  0.55970000  0.30020000  0.46800000  1.0
  C  C213  1  0.18170000  0.55260000  0.00530000  1.0
  C  C214  1  0.03310000  0.42740000  0.96500000  1.0
  C  C215  1  0.79750000  0.08370000  0.50370000  1.0
  C  C216  1  0.70940000  0.22510000  0.58580000  1.0
  C  C217  1  0.94420000  0.34480000  0.96290000  1.0
  C  C218  1  0.27700000  0.63850000  0.00830000  1.0
  C  C219  1  0.22020000  0.65270000  0.89080000  1.0
  C  C220  1  0.74270000  0.23670000  0.64950000  1.0
  C  C221  1  0.73520000  0.12120000  0.47300000  1.0
  C  C222  1  0.17880000  0.45580000  0.17900000  1.0
  C  C223  1  0.21410000  0.60150000  0.97580000  1.0
  C  C224  1  0.73540000  0.06430000  0.38740000  1.0
  C  C225  1  0.21210000  0.49140000  0.15060000  1.0
  C  C226  1  0.52580000  0.33430000  0.49760000  1.0
  C  C227  1  0.46720000  0.37350000  0.46750000  1.0
  C  C228  1  0.17990000  0.50210000  0.08620000  1.0
  C  C229  1  0.18630000  0.60970000  0.91710000  1.0
  C  C230  1  0.30680000  0.68070000  0.97820000  1.0
  C  C231  1  0.70380000  0.10940000  0.41370000  1.0
  C  C232  1  0.70510000  0.17180000  0.50340000  1.0
  C  C233  1  0.47290000  0.35190000  0.38220000  1.0
  C  C234  1  0.82500000  0.04060000  0.47290000  1.0
  C  C235  1  0.00150000  0.42770000  0.90540000  1.0
  C  C236  1  0.30560000  0.50480000  0.24050000  1.0
  C  C237  1  0.21140000  0.44680000  0.23850000  1.0
  C  C238  1  0.94380000  0.38430000  0.87780000  1.0
  C  C239  1  0.74480000  0.29480000  0.73500000  1.0
  C  C240  1  0.27770000  0.51650000  0.18180000  1.0
  C  C241  1  0.71420000  0.28690000  0.67620000  1.0
  C  C242  1  0.80250000  0.19940000  0.68360000  1.0
  C  C243  1  0.82750000  0.20980000  0.74210000  1.0
  C  C244  1  0.59760000  0.97160000  0.99910000  1.0
  C  C245  1  0.03260000  0.81030000  0.40900000  1.0
  C  C246  1  0.12340000  0.75570000  0.50030000  1.0
  C  C247  1  0.50370000  0.88500000  0.99460000  1.0
  C  C248  1  0.05970000  0.80020000  0.46800000  1.0
  C  C249  1  0.68170000  0.05260000  0.00530000  1.0
  C  C250  1  0.53310000  0.92740000  0.96500000  1.0
  C  C251  1  0.29750000  0.58370000  0.50370000  1.0
  C  C252  1  0.20940000  0.72510000  0.58580000  1.0
  C  C253  1  0.44420000  0.84480000  0.96290000  1.0
  C  C254  1  0.77700000  0.13850000  0.00830000  1.0
  C  C255  1  0.72020000  0.15270000  0.89080000  1.0
  C  C256  1  0.24270000  0.73670000  0.64950000  1.0
  C  C257  1  0.23520000  0.62120000  0.47300000  1.0
  C  C258  1  0.67880000  0.95580000  0.17900000  1.0
  C  C259  1  0.71410000  0.10150000  0.97580000  1.0
  C  C260  1  0.23540000  0.56430000  0.38740000  1.0
  C  C261  1  0.71210000  0.99140000  0.15060000  1.0
  C  C262  1  0.02580000  0.83430000  0.49760000  1.0
  C  C263  1  0.96720000  0.87350000  0.46750000  1.0
  C  C264  1  0.67990000  0.00210000  0.08620000  1.0
  C  C265  1  0.68630000  0.10970000  0.91710000  1.0
  C  C266  1  0.80680000  0.18070000  0.97820000  1.0
  C  C267  1  0.20380000  0.60940000  0.41370000  1.0
  C  C268  1  0.20510000  0.67180000  0.50340000  1.0
  C  C269  1  0.97290000  0.85190000  0.38220000  1.0
  C  C270  1  0.32500000  0.54060000  0.47290000  1.0
  C  C271  1  0.50150000  0.92770000  0.90540000  1.0
  C  C272  1  0.80560000  0.00480000  0.24050000  1.0
  C  C273  1  0.71140000  0.94680000  0.23850000  1.0
  C  C274  1  0.44380000  0.88430000  0.87780000  1.0
  C  C275  1  0.24480000  0.79480000  0.73500000  1.0
  C  C276  1  0.77770000  0.01650000  0.18180000  1.0
  C  C277  1  0.21420000  0.78690000  0.67620000  1.0
  C  C278  1  0.30250000  0.69940000  0.68360000  1.0
  C  C279  1  0.32750000  0.70980000  0.74210000  1.0
  C  C280  1  0.90240000  0.47160000  0.50090000  1.0
  C  C281  1  0.46740000  0.31030000  0.09100000  1.0
  C  C282  1  0.37660000  0.25570000  0.99970000  1.0
  C  C283  1  0.99630000  0.38500000  0.50540000  1.0
  C  C284  1  0.44030000  0.30020000  0.03200000  1.0
  C  C285  1  0.81830000  0.55260000  0.49470000  1.0
  C  C286  1  0.96690000  0.42740000  0.53500000  1.0
  C  C287  1  0.20250000  0.08370000  0.99630000  1.0
  C  C288  1  0.29060000  0.22510000  0.91420000  1.0
  C  C289  1  0.05580000  0.34480000  0.53710000  1.0
  C  C290  1  0.72300000  0.63850000  0.49170000  1.0
  C  C291  1  0.77980000  0.65270000  0.60920000  1.0
  C  C292  1  0.25730000  0.23670000  0.85050000  1.0
  C  C293  1  0.26480000  0.12120000  0.02700000  1.0
  C  C294  1  0.82120000  0.45580000  0.32100000  1.0
  C  C295  1  0.78590000  0.60150000  0.52420000  1.0
  C  C296  1  0.26460000  0.06430000  0.11260000  1.0
  C  C297  1  0.78790000  0.49140000  0.34940000  1.0
  C  C298  1  0.47420000  0.33430000  0.00240000  1.0
  C  C299  1  0.53280000  0.37350000  0.03250000  1.0
  C  C300  1  0.82010000  0.50210000  0.41380000  1.0
  C  C301  1  0.81370000  0.60970000  0.58290000  1.0
  C  C302  1  0.69320000  0.68070000  0.52180000  1.0
  C  C303  1  0.29620000  0.10940000  0.08630000  1.0
  C  C304  1  0.29490000  0.17180000  0.99660000  1.0
  C  C305  1  0.52710000  0.35190000  0.11780000  1.0
  C  C306  1  0.17500000  0.04060000  0.02710000  1.0
  C  C307  1  0.99850000  0.42770000  0.59460000  1.0
  C  C308  1  0.69440000  0.50480000  0.25950000  1.0
  C  C309  1  0.78860000  0.44680000  0.26150000  1.0
  C  C310  1  0.05620000  0.38430000  0.62220000  1.0
  C  C311  1  0.25520000  0.29480000  0.76500000  1.0
  C  C312  1  0.72230000  0.51650000  0.31820000  1.0
  C  C313  1  0.28580000  0.28690000  0.82380000  1.0
  C  C314  1  0.19750000  0.19940000  0.81640000  1.0
  C  C315  1  0.17250000  0.20980000  0.75790000  1.0
  C  C316  1  0.40240000  0.97160000  0.50090000  1.0
  C  C317  1  0.96740000  0.81030000  0.09100000  1.0
  C  C318  1  0.87660000  0.75570000  0.99970000  1.0
  C  C319  1  0.49630000  0.88500000  0.50540000  1.0
  C  C320  1  0.94030000  0.80020000  0.03200000  1.0
  C  C321  1  0.31830000  0.05260000  0.49470000  1.0
  C  C322  1  0.46690000  0.92740000  0.53500000  1.0
  C  C323  1  0.70250000  0.58370000  0.99630000  1.0
  C  C324  1  0.79060000  0.72510000  0.91420000  1.0
  C  C325  1  0.55580000  0.84480000  0.53710000  1.0
  C  C326  1  0.22300000  0.13850000  0.49170000  1.0
  C  C327  1  0.27980000  0.15270000  0.60920000  1.0
  C  C328  1  0.75730000  0.73670000  0.85050000  1.0
  C  C329  1  0.76480000  0.62120000  0.02700000  1.0
  C  C330  1  0.32120000  0.95580000  0.32100000  1.0
  C  C331  1  0.28590000  0.10150000  0.52420000  1.0
  C  C332  1  0.76460000  0.56430000  0.11260000  1.0
  C  C333  1  0.28790000  0.99140000  0.34940000  1.0
  C  C334  1  0.97420000  0.83430000  0.00240000  1.0
  C  C335  1  0.03280000  0.87350000  0.03250000  1.0
  C  C336  1  0.32010000  0.00210000  0.41380000  1.0
  C  C337  1  0.31370000  0.10970000  0.58290000  1.0
  C  C338  1  0.19320000  0.18070000  0.52180000  1.0
  C  C339  1  0.79620000  0.60940000  0.08630000  1.0
  C  C340  1  0.79490000  0.67180000  0.99660000  1.0
  C  C341  1  0.02710000  0.85190000  0.11780000  1.0
  C  C342  1  0.67500000  0.54060000  0.02710000  1.0
  C  C343  1  0.49850000  0.92770000  0.59460000  1.0
  C  C344  1  0.19440000  0.00480000  0.25950000  1.0
  C  C345  1  0.28860000  0.94680000  0.26150000  1.0
  C  C346  1  0.55620000  0.88430000  0.62220000  1.0
  C  C347  1  0.75520000  0.79480000  0.76500000  1.0
  C  C348  1  0.22230000  0.01650000  0.31820000  1.0
  C  C349  1  0.78580000  0.78690000  0.82380000  1.0
  C  C350  1  0.69750000  0.69940000  0.81640000  1.0
  C  C351  1  0.67250000  0.70980000  0.75790000  1.0
  C  C352  1  0.90240000  0.52840000  0.00090000  1.0
  C  C353  1  0.46740000  0.68970000  0.59100000  1.0
  C  C354  1  0.37660000  0.74430000  0.49970000  1.0
  C  C355  1  0.99630000  0.61500000  0.00540000  1.0
  C  C356  1  0.44030000  0.69980000  0.53200000  1.0
  C  C357  1  0.81830000  0.44740000  0.99470000  1.0
  C  C358  1  0.96690000  0.57260000  0.03500000  1.0
  C  C359  1  0.20250000  0.91630000  0.49630000  1.0
  C  C360  1  0.29060000  0.77490000  0.41420000  1.0
  C  C361  1  0.05580000  0.65520000  0.03710000  1.0
  C  C362  1  0.72300000  0.36150000  0.99170000  1.0
  C  C363  1  0.77980000  0.34730000  0.10920000  1.0
  C  C364  1  0.25730000  0.76330000  0.35050000  1.0
  C  C365  1  0.26480000  0.87880000  0.52700000  1.0
  C  C366  1  0.82120000  0.54420000  0.82100000  1.0
  C  C367  1  0.78590000  0.39850000  0.02420000  1.0
  C  C368  1  0.26460000  0.93570000  0.61260000  1.0
  C  C369  1  0.78790000  0.50860000  0.84940000  1.0
  C  C370  1  0.47420000  0.66570000  0.50240000  1.0
  C  C371  1  0.53280000  0.62650000  0.53250000  1.0
  C  C372  1  0.82010000  0.49790000  0.91380000  1.0
  C  C373  1  0.81370000  0.39030000  0.08290000  1.0
  C  C374  1  0.69320000  0.31930000  0.02180000  1.0
  C  C375  1  0.29620000  0.89060000  0.58630000  1.0
  C  C376  1  0.29490000  0.82820000  0.49660000  1.0
  C  C377  1  0.52710000  0.64810000  0.61780000  1.0
  C  C378  1  0.17500000  0.95940000  0.52710000  1.0
  C  C379  1  0.99850000  0.57230000  0.09460000  1.0
  C  C380  1  0.69440000  0.49520000  0.75950000  1.0
  C  C381  1  0.78860000  0.55320000  0.76150000  1.0
  C  C382  1  0.05620000  0.61570000  0.12220000  1.0
  C  C383  1  0.25520000  0.70520000  0.26500000  1.0
  C  C384  1  0.72230000  0.48350000  0.81820000  1.0
  C  C385  1  0.28580000  0.71310000  0.32380000  1.0
  C  C386  1  0.19750000  0.80060000  0.31640000  1.0
  C  C387  1  0.17250000  0.79020000  0.25790000  1.0
  C  C388  1  0.40240000  0.02840000  0.00090000  1.0
  C  C389  1  0.96740000  0.18970000  0.59100000  1.0
  C  C390  1  0.87660000  0.24430000  0.49970000  1.0
  C  C391  1  0.49630000  0.11500000  0.00540000  1.0
  C  C392  1  0.94030000  0.19980000  0.53200000  1.0
  C  C393  1  0.31830000  0.94740000  0.99470000  1.0
  C  C394  1  0.46690000  0.07260000  0.03500000  1.0
  C  C395  1  0.70250000  0.41630000  0.49630000  1.0
  C  C396  1  0.79060000  0.27490000  0.41420000  1.0
  C  C397  1  0.55580000  0.15520000  0.03710000  1.0
  C  C398  1  0.22300000  0.86150000  0.99170000  1.0
  C  C399  1  0.27980000  0.84730000  0.10920000  1.0
  C  C400  1  0.75730000  0.26330000  0.35050000  1.0
  C  C401  1  0.76480000  0.37880000  0.52700000  1.0
  C  C402  1  0.32120000  0.04420000  0.82100000  1.0
  C  C403  1  0.28590000  0.89850000  0.02420000  1.0
  C  C404  1  0.76460000  0.43570000  0.61260000  1.0
  C  C405  1  0.28790000  0.00860000  0.84940000  1.0
  C  C406  1  0.97420000  0.16570000  0.50240000  1.0
  C  C407  1  0.03280000  0.12650000  0.53250000  1.0
  C  C408  1  0.32010000  0.99790000  0.91380000  1.0
  C  C409  1  0.31370000  0.89030000  0.08290000  1.0
  C  C410  1  0.19320000  0.81930000  0.02180000  1.0
  C  C411  1  0.79620000  0.39060000  0.58630000  1.0
  C  C412  1  0.79490000  0.32820000  0.49660000  1.0
  C  C413  1  0.02710000  0.14810000  0.61780000  1.0
  C  C414  1  0.67500000  0.45940000  0.52710000  1.0
  C  C415  1  0.49850000  0.07230000  0.09460000  1.0
  C  C416  1  0.19440000  0.99520000  0.75950000  1.0
  C  C417  1  0.28860000  0.05320000  0.76150000  1.0
  C  C418  1  0.55620000  0.11570000  0.12220000  1.0
  C  C419  1  0.75520000  0.20520000  0.26500000  1.0
  C  C420  1  0.22230000  0.98350000  0.81820000  1.0
  C  C421  1  0.78580000  0.21310000  0.32380000  1.0
  C  C422  1  0.69750000  0.30060000  0.31640000  1.0
  C  C423  1  0.67250000  0.29020000  0.25790000  1.0
  C  C424  1  0.09760000  0.52840000  0.49910000  1.0
  C  C425  1  0.53260000  0.68970000  0.90900000  1.0
  C  C426  1  0.62340000  0.74430000  0.00030000  1.0
  C  C427  1  0.00370000  0.61500000  0.49460000  1.0
  C  C428  1  0.55970000  0.69980000  0.96800000  1.0
  C  C429  1  0.18170000  0.44740000  0.50530000  1.0
  C  C430  1  0.03310000  0.57260000  0.46500000  1.0
  C  C431  1  0.79750000  0.91630000  0.00370000  1.0
  C  C432  1  0.70940000  0.77490000  0.08580000  1.0
  C  C433  1  0.94420000  0.65520000  0.46290000  1.0
  C  C434  1  0.27700000  0.36150000  0.50830000  1.0
  C  C435  1  0.22020000  0.34730000  0.39080000  1.0
  C  C436  1  0.74270000  0.76330000  0.14950000  1.0
  C  C437  1  0.73520000  0.87880000  0.97300000  1.0
  C  C438  1  0.17880000  0.54420000  0.67900000  1.0
  C  C439  1  0.21410000  0.39850000  0.47580000  1.0
  C  C440  1  0.73540000  0.93570000  0.88740000  1.0
  C  C441  1  0.21210000  0.50860000  0.65060000  1.0
  C  C442  1  0.52580000  0.66570000  0.99760000  1.0
  C  C443  1  0.46720000  0.62650000  0.96750000  1.0
  C  C444  1  0.17990000  0.49790000  0.58620000  1.0
  C  C445  1  0.18630000  0.39030000  0.41710000  1.0
  C  C446  1  0.30680000  0.31930000  0.47820000  1.0
  C  C447  1  0.70380000  0.89060000  0.91370000  1.0
  C  C448  1  0.70510000  0.82820000  0.00340000  1.0
  C  C449  1  0.47290000  0.64810000  0.88220000  1.0
  C  C450  1  0.82500000  0.95940000  0.97290000  1.0
  C  C451  1  0.00150000  0.57230000  0.40540000  1.0
  C  C452  1  0.30560000  0.49520000  0.74050000  1.0
  C  C453  1  0.21140000  0.55320000  0.73850000  1.0
  C  C454  1  0.94380000  0.61570000  0.37780000  1.0
  C  C455  1  0.74480000  0.70520000  0.23500000  1.0
  C  C456  1  0.27770000  0.48350000  0.68180000  1.0
  C  C457  1  0.71420000  0.71310000  0.17620000  1.0
  C  C458  1  0.80250000  0.80060000  0.18360000  1.0
  C  C459  1  0.82750000  0.79020000  0.24210000  1.0
  C  C460  1  0.59760000  0.02840000  0.49910000  1.0
  C  C461  1  0.03260000  0.18970000  0.90900000  1.0
  C  C462  1  0.12340000  0.24430000  0.00030000  1.0
  C  C463  1  0.50370000  0.11500000  0.49460000  1.0
  C  C464  1  0.05970000  0.19980000  0.96800000  1.0
  C  C465  1  0.68170000  0.94740000  0.50530000  1.0
  C  C466  1  0.53310000  0.07260000  0.46500000  1.0
  C  C467  1  0.29750000  0.41630000  0.00370000  1.0
  C  C468  1  0.20940000  0.27490000  0.08580000  1.0
  C  C469  1  0.44420000  0.15520000  0.46290000  1.0
  C  C470  1  0.77700000  0.86150000  0.50830000  1.0
  C  C471  1  0.72020000  0.84730000  0.39080000  1.0
  C  C472  1  0.24270000  0.26330000  0.14950000  1.0
  C  C473  1  0.23520000  0.37880000  0.97300000  1.0
  C  C474  1  0.67880000  0.04420000  0.67900000  1.0
  C  C475  1  0.71410000  0.89850000  0.47580000  1.0
  C  C476  1  0.23540000  0.43570000  0.88740000  1.0
  C  C477  1  0.71210000  0.00860000  0.65060000  1.0
  C  C478  1  0.02580000  0.16570000  0.99760000  1.0
  C  C479  1  0.96720000  0.12650000  0.96750000  1.0
  C  C480  1  0.67990000  0.99790000  0.58620000  1.0
  C  C481  1  0.68630000  0.89030000  0.41710000  1.0
  C  C482  1  0.80680000  0.81930000  0.47820000  1.0
  C  C483  1  0.20380000  0.39060000  0.91370000  1.0
  C  C484  1  0.20510000  0.32820000  0.00340000  1.0
  C  C485  1  0.97290000  0.14810000  0.88220000  1.0
  C  C486  1  0.32500000  0.45940000  0.97290000  1.0
  C  C487  1  0.50150000  0.07230000  0.40540000  1.0
  C  C488  1  0.80560000  0.99520000  0.74050000  1.0
  C  C489  1  0.71140000  0.05320000  0.73850000  1.0
  C  C490  1  0.44380000  0.11570000  0.37780000  1.0
  C  C491  1  0.24480000  0.20520000  0.23500000  1.0
  C  C492  1  0.77770000  0.98350000  0.68180000  1.0
  C  C493  1  0.21420000  0.21310000  0.17620000  1.0
  C  C494  1  0.30250000  0.30060000  0.18360000  1.0
  C  C495  1  0.32750000  0.29020000  0.24210000  1.0
  N  N496  1  0.79550000  0.03000000  0.41630000  1.0
  N  N497  1  0.43900000  0.38170000  0.41000000  1.0
  N  N498  1  0.80060000  0.25420000  0.76900000  1.0
  N  N499  1  0.64780000  0.21010000  0.47080000  1.0
  N  N500  1  0.65250000  0.26600000  0.55740000  1.0
  N  N501  1  0.73750000  0.17740000  0.56090000  1.0
  N  N502  1  0.27930000  0.68720000  0.92060000  1.0
  N  N503  1  0.91340000  0.34370000  0.90560000  1.0
  N  N504  1  0.27490000  0.47040000  0.26980000  1.0
  N  N505  1  0.12550000  0.51290000  0.97180000  1.0
  N  N506  1  0.12300000  0.46300000  0.05690000  1.0
  N  N507  1  0.21090000  0.54900000  0.06310000  1.0
  N  N508  1  0.29550000  0.53000000  0.41630000  1.0
  N  N509  1  0.93900000  0.88170000  0.41000000  1.0
  N  N510  1  0.30060000  0.75420000  0.76900000  1.0
  N  N511  1  0.14780000  0.71010000  0.47080000  1.0
  N  N512  1  0.15250000  0.76600000  0.55740000  1.0
  N  N513  1  0.23750000  0.67740000  0.56090000  1.0
  N  N514  1  0.77930000  0.18720000  0.92060000  1.0
  N  N515  1  0.41340000  0.84370000  0.90560000  1.0
  N  N516  1  0.77490000  0.97040000  0.26980000  1.0
  N  N517  1  0.62550000  0.01290000  0.97180000  1.0
  N  N518  1  0.62300000  0.96300000  0.05690000  1.0
  N  N519  1  0.71090000  0.04900000  0.06310000  1.0
  N  N520  1  0.20450000  0.03000000  0.08370000  1.0
  N  N521  1  0.56100000  0.38170000  0.09000000  1.0
  N  N522  1  0.19940000  0.25420000  0.73100000  1.0
  N  N523  1  0.35220000  0.21010000  0.02920000  1.0
  N  N524  1  0.34750000  0.26600000  0.94260000  1.0
  N  N525  1  0.26250000  0.17740000  0.93910000  1.0
  N  N526  1  0.72070000  0.68720000  0.57940000  1.0
  N  N527  1  0.08660000  0.34370000  0.59440000  1.0
  N  N528  1  0.72510000  0.47040000  0.23020000  1.0
  N  N529  1  0.87450000  0.51290000  0.52820000  1.0
  N  N530  1  0.87700000  0.46300000  0.44310000  1.0
  N  N531  1  0.78910000  0.54900000  0.43690000  1.0
  N  N532  1  0.70450000  0.53000000  0.08370000  1.0
  N  N533  1  0.06100000  0.88170000  0.09000000  1.0
  N  N534  1  0.69940000  0.75420000  0.73100000  1.0
  N  N535  1  0.85220000  0.71010000  0.02920000  1.0
  N  N536  1  0.84750000  0.76600000  0.94260000  1.0
  N  N537  1  0.76250000  0.67740000  0.93910000  1.0
  N  N538  1  0.22070000  0.18720000  0.57940000  1.0
  N  N539  1  0.58660000  0.84370000  0.59440000  1.0
  N  N540  1  0.22510000  0.97040000  0.23020000  1.0
  N  N541  1  0.37450000  0.01290000  0.52820000  1.0
  N  N542  1  0.37700000  0.96300000  0.44310000  1.0
  N  N543  1  0.28910000  0.04900000  0.43690000  1.0
  N  N544  1  0.20450000  0.97000000  0.58370000  1.0
  N  N545  1  0.56100000  0.61830000  0.59000000  1.0
  N  N546  1  0.19940000  0.74580000  0.23100000  1.0
  N  N547  1  0.35220000  0.78990000  0.52920000  1.0
  N  N548  1  0.34750000  0.73400000  0.44260000  1.0
  N  N549  1  0.26250000  0.82260000  0.43910000  1.0
  N  N550  1  0.72070000  0.31280000  0.07940000  1.0
  N  N551  1  0.08660000  0.65630000  0.09440000  1.0
  N  N552  1  0.72510000  0.52960000  0.73020000  1.0
  N  N553  1  0.87450000  0.48710000  0.02820000  1.0
  N  N554  1  0.87700000  0.53700000  0.94310000  1.0
  N  N555  1  0.78910000  0.45100000  0.93690000  1.0
  N  N556  1  0.70450000  0.47000000  0.58370000  1.0
  N  N557  1  0.06100000  0.11830000  0.59000000  1.0
  N  N558  1  0.69940000  0.24580000  0.23100000  1.0
  N  N559  1  0.85220000  0.28990000  0.52920000  1.0
  N  N560  1  0.84750000  0.23400000  0.44260000  1.0
  N  N561  1  0.76250000  0.32260000  0.43910000  1.0
  N  N562  1  0.22070000  0.81280000  0.07940000  1.0
  N  N563  1  0.58660000  0.15630000  0.09440000  1.0
  N  N564  1  0.22510000  0.02960000  0.73020000  1.0
  N  N565  1  0.37450000  0.98710000  0.02820000  1.0
  N  N566  1  0.37700000  0.03700000  0.94310000  1.0
  N  N567  1  0.28910000  0.95100000  0.93690000  1.0
  N  N568  1  0.79550000  0.97000000  0.91630000  1.0
  N  N569  1  0.43900000  0.61830000  0.91000000  1.0
  N  N570  1  0.80060000  0.74580000  0.26900000  1.0
  N  N571  1  0.64780000  0.78990000  0.97080000  1.0
  N  N572  1  0.65250000  0.73400000  0.05740000  1.0
  N  N573  1  0.73750000  0.82260000  0.06090000  1.0
  N  N574  1  0.27930000  0.31280000  0.42060000  1.0
  N  N575  1  0.91340000  0.65630000  0.40560000  1.0
  N  N576  1  0.27490000  0.52960000  0.76980000  1.0
  N  N577  1  0.12550000  0.48710000  0.47180000  1.0
  N  N578  1  0.12300000  0.53700000  0.55690000  1.0
  N  N579  1  0.21090000  0.45100000  0.56310000  1.0
  N  N580  1  0.29550000  0.47000000  0.91630000  1.0
  N  N581  1  0.93900000  0.11830000  0.91000000  1.0
  N  N582  1  0.30060000  0.24580000  0.26900000  1.0
  N  N583  1  0.14780000  0.28990000  0.97080000  1.0
  N  N584  1  0.15250000  0.23400000  0.05740000  1.0
  N  N585  1  0.23750000  0.32260000  0.06090000  1.0
  N  N586  1  0.77930000  0.81280000  0.42060000  1.0
  N  N587  1  0.41340000  0.15630000  0.40560000  1.0
  N  N588  1  0.77490000  0.02960000  0.76980000  1.0
  N  N589  1  0.62550000  0.98710000  0.47180000  1.0
  N  N590  1  0.62300000  0.03700000  0.55690000  1.0
  N  N591  1  0.71090000  0.95100000  0.56310000  1.0
