# generated using pymatgen
data_AgH12(C3N)6
_symmetry_space_group_name_H-M   'P 1'
_cell_length_a   22.07650000
_cell_length_b   16.31580000
_cell_length_c   25.68000000
_cell_angle_alpha   90.00000000
_cell_angle_beta   115.41600000
_cell_angle_gamma   90.00000000
_symmetry_Int_Tables_number   1
_chemical_formula_structural   AgH12(C3N)6
_chemical_formula_sum   'Ag16 H192 C288 N96'
_cell_volume   8354.58697537
_cell_formula_units_Z   16
loop_
 _symmetry_equiv_pos_site_id
 _symmetry_equiv_pos_as_xyz
  1  'x, y, z'
loop_
 _atom_site_type_symbol
 _atom_site_label
 _atom_site_symmetry_multiplicity
 _atom_site_fract_x
 _atom_site_fract_y
 _atom_site_fract_z
 _atom_site_occupancy
  Ag  Ag0  1  0.82280000  0.24959000  0.86741000  1.0
  Ag  Ag1  1  0.34348000  0.45725000  0.36767000  1.0
  Ag  Ag2  1  0.32280000  0.74959000  0.86741000  1.0
  Ag  Ag3  1  0.84348000  0.95725000  0.36767000  1.0
  Ag  Ag4  1  0.17720000  0.24959000  0.63259000  1.0
  Ag  Ag5  1  0.65652000  0.45725000  0.13233000  1.0
  Ag  Ag6  1  0.67720000  0.74959000  0.63259000  1.0
  Ag  Ag7  1  0.15652000  0.95725000  0.13233000  1.0
  Ag  Ag8  1  0.17720000  0.75041000  0.13259000  1.0
  Ag  Ag9  1  0.65652000  0.54275000  0.63233000  1.0
  Ag  Ag10  1  0.67720000  0.25041000  0.13259000  1.0
  Ag  Ag11  1  0.15652000  0.04275000  0.63233000  1.0
  Ag  Ag12  1  0.82280000  0.75041000  0.36741000  1.0
  Ag  Ag13  1  0.34348000  0.54275000  0.86767000  1.0
  Ag  Ag14  1  0.32280000  0.25041000  0.36741000  1.0
  Ag  Ag15  1  0.84348000  0.04275000  0.86767000  1.0
  H  H16  1  0.02150000  0.38180000  0.03680000  1.0
  H  H17  1  0.05440000  0.79050000  0.39000000  1.0
  H  H18  1  0.29830000  0.63380000  0.04960000  1.0
  H  H19  1  0.21400000  0.56040000  0.34880000  1.0
  H  H20  1  0.19930000  0.65530000  0.85250000  1.0
  H  H21  1  0.92230000  0.31520000  0.98560000  1.0
  H  H22  1  0.04360000  0.83200000  0.54000000  1.0
  H  H23  1  0.94370000  0.89790000  0.48960000  1.0
  H  H24  1  0.34980000  0.52430000  0.26380000  1.0
  H  H25  1  0.13340000  0.43860000  0.16180000  1.0
  H  H26  1  0.02020000  0.45320000  0.88660000  1.0
  H  H27  1  0.36780000  0.51640000  0.49480000  1.0
  H  H28  1  0.36530000  0.67340000  0.76720000  1.0
  H  H29  1  0.34900000  0.70340000  0.00060000  1.0
  H  H30  1  0.32090000  0.58860000  0.54500000  1.0
  H  H31  1  0.95640000  0.86250000  0.34480000  1.0
  H  H32  1  0.92300000  0.37980000  0.83960000  1.0
  H  H33  1  0.30100000  0.54120000  0.16550000  1.0
  H  H34  1  0.14400000  0.58510000  0.89640000  1.0
  H  H35  1  0.18730000  0.42450000  0.26000000  1.0
  H  H36  1  0.16290000  0.63510000  0.39380000  1.0
  H  H37  1  0.17730000  0.81880000  0.65670000  1.0
  H  H38  1  0.22550000  0.82800000  0.75530000  1.0
  H  H39  1  0.32270000  0.66210000  0.66890000  1.0
  H  H40  1  0.52150000  0.88180000  0.03680000  1.0
  H  H41  1  0.55440000  0.29050000  0.39000000  1.0
  H  H42  1  0.79830000  0.13380000  0.04960000  1.0
  H  H43  1  0.71400000  0.06040000  0.34880000  1.0
  H  H44  1  0.69930000  0.15530000  0.85250000  1.0
  H  H45  1  0.42230000  0.81520000  0.98560000  1.0
  H  H46  1  0.54360000  0.33200000  0.54000000  1.0
  H  H47  1  0.44370000  0.39790000  0.48960000  1.0
  H  H48  1  0.84980000  0.02430000  0.26380000  1.0
  H  H49  1  0.63340000  0.93860000  0.16180000  1.0
  H  H50  1  0.52020000  0.95320000  0.88660000  1.0
  H  H51  1  0.86780000  0.01640000  0.49480000  1.0
  H  H52  1  0.86530000  0.17340000  0.76720000  1.0
  H  H53  1  0.84900000  0.20340000  0.00060000  1.0
  H  H54  1  0.82090000  0.08860000  0.54500000  1.0
  H  H55  1  0.45640000  0.36250000  0.34480000  1.0
  H  H56  1  0.42300000  0.87980000  0.83960000  1.0
  H  H57  1  0.80100000  0.04120000  0.16550000  1.0
  H  H58  1  0.64400000  0.08510000  0.89640000  1.0
  H  H59  1  0.68730000  0.92450000  0.26000000  1.0
  H  H60  1  0.66290000  0.13510000  0.39380000  1.0
  H  H61  1  0.67730000  0.31880000  0.65670000  1.0
  H  H62  1  0.72550000  0.32800000  0.75530000  1.0
  H  H63  1  0.82270000  0.16210000  0.66890000  1.0
  H  H64  1  0.97850000  0.38180000  0.46320000  1.0
  H  H65  1  0.94560000  0.79050000  0.11000000  1.0
  H  H66  1  0.70170000  0.63380000  0.45040000  1.0
  H  H67  1  0.78600000  0.56040000  0.15120000  1.0
  H  H68  1  0.80070000  0.65530000  0.64750000  1.0
  H  H69  1  0.07770000  0.31520000  0.51440000  1.0
  H  H70  1  0.95640000  0.83200000  0.96000000  1.0
  H  H71  1  0.05630000  0.89790000  0.01040000  1.0
  H  H72  1  0.65020000  0.52430000  0.23620000  1.0
  H  H73  1  0.86660000  0.43860000  0.33820000  1.0
  H  H74  1  0.97980000  0.45320000  0.61340000  1.0
  H  H75  1  0.63220000  0.51640000  0.00520000  1.0
  H  H76  1  0.63470000  0.67340000  0.73280000  1.0
  H  H77  1  0.65100000  0.70340000  0.49940000  1.0
  H  H78  1  0.67910000  0.58860000  0.95500000  1.0
  H  H79  1  0.04360000  0.86250000  0.15520000  1.0
  H  H80  1  0.07700000  0.37980000  0.66040000  1.0
  H  H81  1  0.69900000  0.54120000  0.33450000  1.0
  H  H82  1  0.85600000  0.58510000  0.60360000  1.0
  H  H83  1  0.81270000  0.42450000  0.24000000  1.0
  H  H84  1  0.83710000  0.63510000  0.10620000  1.0
  H  H85  1  0.82270000  0.81880000  0.84330000  1.0
  H  H86  1  0.77450000  0.82800000  0.74470000  1.0
  H  H87  1  0.67730000  0.66210000  0.83110000  1.0
  H  H88  1  0.47850000  0.88180000  0.46320000  1.0
  H  H89  1  0.44560000  0.29050000  0.11000000  1.0
  H  H90  1  0.20170000  0.13380000  0.45040000  1.0
  H  H91  1  0.28600000  0.06040000  0.15120000  1.0
  H  H92  1  0.30070000  0.15530000  0.64750000  1.0
  H  H93  1  0.57770000  0.81520000  0.51440000  1.0
  H  H94  1  0.45640000  0.33200000  0.96000000  1.0
  H  H95  1  0.55630000  0.39790000  0.01040000  1.0
  H  H96  1  0.15020000  0.02430000  0.23620000  1.0
  H  H97  1  0.36660000  0.93860000  0.33820000  1.0
  H  H98  1  0.47980000  0.95320000  0.61340000  1.0
  H  H99  1  0.13220000  0.01640000  0.00520000  1.0
  H  H100  1  0.13470000  0.17340000  0.73280000  1.0
  H  H101  1  0.15100000  0.20340000  0.49940000  1.0
  H  H102  1  0.17910000  0.08860000  0.95500000  1.0
  H  H103  1  0.54360000  0.36250000  0.15520000  1.0
  H  H104  1  0.57700000  0.87980000  0.66040000  1.0
  H  H105  1  0.19900000  0.04120000  0.33450000  1.0
  H  H106  1  0.35600000  0.08510000  0.60360000  1.0
  H  H107  1  0.31270000  0.92450000  0.24000000  1.0
  H  H108  1  0.33710000  0.13510000  0.10620000  1.0
  H  H109  1  0.32270000  0.31880000  0.84330000  1.0
  H  H110  1  0.27450000  0.32800000  0.74470000  1.0
  H  H111  1  0.17730000  0.16210000  0.83110000  1.0
  H  H112  1  0.97850000  0.61820000  0.96320000  1.0
  H  H113  1  0.94560000  0.20950000  0.61000000  1.0
  H  H114  1  0.70170000  0.36620000  0.95040000  1.0
  H  H115  1  0.78600000  0.43960000  0.65120000  1.0
  H  H116  1  0.80070000  0.34470000  0.14750000  1.0
  H  H117  1  0.07770000  0.68480000  0.01440000  1.0
  H  H118  1  0.95640000  0.16800000  0.46000000  1.0
  H  H119  1  0.05630000  0.10210000  0.51040000  1.0
  H  H120  1  0.65020000  0.47570000  0.73620000  1.0
  H  H121  1  0.86660000  0.56140000  0.83820000  1.0
  H  H122  1  0.97980000  0.54680000  0.11340000  1.0
  H  H123  1  0.63220000  0.48360000  0.50520000  1.0
  H  H124  1  0.63470000  0.32660000  0.23280000  1.0
  H  H125  1  0.65100000  0.29660000  0.99940000  1.0
  H  H126  1  0.67910000  0.41140000  0.45500000  1.0
  H  H127  1  0.04360000  0.13750000  0.65520000  1.0
  H  H128  1  0.07700000  0.62020000  0.16040000  1.0
  H  H129  1  0.69900000  0.45880000  0.83450000  1.0
  H  H130  1  0.85600000  0.41490000  0.10360000  1.0
  H  H131  1  0.81270000  0.57550000  0.74000000  1.0
  H  H132  1  0.83710000  0.36490000  0.60620000  1.0
  H  H133  1  0.82270000  0.18120000  0.34330000  1.0
  H  H134  1  0.77450000  0.17200000  0.24470000  1.0
  H  H135  1  0.67730000  0.33790000  0.33110000  1.0
  H  H136  1  0.47850000  0.11820000  0.96320000  1.0
  H  H137  1  0.44560000  0.70950000  0.61000000  1.0
  H  H138  1  0.20170000  0.86620000  0.95040000  1.0
  H  H139  1  0.28600000  0.93960000  0.65120000  1.0
  H  H140  1  0.30070000  0.84470000  0.14750000  1.0
  H  H141  1  0.57770000  0.18480000  0.01440000  1.0
  H  H142  1  0.45640000  0.66800000  0.46000000  1.0
  H  H143  1  0.55630000  0.60210000  0.51040000  1.0
  H  H144  1  0.15020000  0.97570000  0.73620000  1.0
  H  H145  1  0.36660000  0.06140000  0.83820000  1.0
  H  H146  1  0.47980000  0.04680000  0.11340000  1.0
  H  H147  1  0.13220000  0.98360000  0.50520000  1.0
  H  H148  1  0.13470000  0.82660000  0.23280000  1.0
  H  H149  1  0.15100000  0.79660000  0.99940000  1.0
  H  H150  1  0.17910000  0.91140000  0.45500000  1.0
  H  H151  1  0.54360000  0.63750000  0.65520000  1.0
  H  H152  1  0.57700000  0.12020000  0.16040000  1.0
  H  H153  1  0.19900000  0.95880000  0.83450000  1.0
  H  H154  1  0.35600000  0.91490000  0.10360000  1.0
  H  H155  1  0.31270000  0.07550000  0.74000000  1.0
  H  H156  1  0.33710000  0.86490000  0.60620000  1.0
  H  H157  1  0.32270000  0.68120000  0.34330000  1.0
  H  H158  1  0.27450000  0.67200000  0.24470000  1.0
  H  H159  1  0.17730000  0.83790000  0.33110000  1.0
  H  H160  1  0.02150000  0.61820000  0.53680000  1.0
  H  H161  1  0.05440000  0.20950000  0.89000000  1.0
  H  H162  1  0.29830000  0.36620000  0.54960000  1.0
  H  H163  1  0.21400000  0.43960000  0.84880000  1.0
  H  H164  1  0.19930000  0.34470000  0.35250000  1.0
  H  H165  1  0.92230000  0.68480000  0.48560000  1.0
  H  H166  1  0.04360000  0.16800000  0.04000000  1.0
  H  H167  1  0.94370000  0.10210000  0.98960000  1.0
  H  H168  1  0.34980000  0.47570000  0.76380000  1.0
  H  H169  1  0.13340000  0.56140000  0.66180000  1.0
  H  H170  1  0.02020000  0.54680000  0.38660000  1.0
  H  H171  1  0.36780000  0.48360000  0.99480000  1.0
  H  H172  1  0.36530000  0.32660000  0.26720000  1.0
  H  H173  1  0.34900000  0.29660000  0.50060000  1.0
  H  H174  1  0.32090000  0.41140000  0.04500000  1.0
  H  H175  1  0.95640000  0.13750000  0.84480000  1.0
  H  H176  1  0.92300000  0.62020000  0.33960000  1.0
  H  H177  1  0.30100000  0.45880000  0.66550000  1.0
  H  H178  1  0.14400000  0.41490000  0.39640000  1.0
  H  H179  1  0.18730000  0.57550000  0.76000000  1.0
  H  H180  1  0.16290000  0.36490000  0.89380000  1.0
  H  H181  1  0.17730000  0.18120000  0.15670000  1.0
  H  H182  1  0.22550000  0.17200000  0.25530000  1.0
  H  H183  1  0.32270000  0.33790000  0.16890000  1.0
  H  H184  1  0.52150000  0.11820000  0.53680000  1.0
  H  H185  1  0.55440000  0.70950000  0.89000000  1.0
  H  H186  1  0.79830000  0.86620000  0.54960000  1.0
  H  H187  1  0.71400000  0.93960000  0.84880000  1.0
  H  H188  1  0.69930000  0.84470000  0.35250000  1.0
  H  H189  1  0.42230000  0.18480000  0.48560000  1.0
  H  H190  1  0.54360000  0.66800000  0.04000000  1.0
  H  H191  1  0.44370000  0.60210000  0.98960000  1.0
  H  H192  1  0.84980000  0.97570000  0.76380000  1.0
  H  H193  1  0.63340000  0.06140000  0.66180000  1.0
  H  H194  1  0.52020000  0.04680000  0.38660000  1.0
  H  H195  1  0.86780000  0.98360000  0.99480000  1.0
  H  H196  1  0.86530000  0.82660000  0.26720000  1.0
  H  H197  1  0.84900000  0.79660000  0.50060000  1.0
  H  H198  1  0.82090000  0.91140000  0.04500000  1.0
  H  H199  1  0.45640000  0.63750000  0.84480000  1.0
  H  H200  1  0.42300000  0.12020000  0.33960000  1.0
  H  H201  1  0.80100000  0.95880000  0.66550000  1.0
  H  H202  1  0.64400000  0.91490000  0.39640000  1.0
  H  H203  1  0.68730000  0.07550000  0.76000000  1.0
  H  H204  1  0.66290000  0.86490000  0.89380000  1.0
  H  H205  1  0.67730000  0.68120000  0.15670000  1.0
  H  H206  1  0.72550000  0.67200000  0.25530000  1.0
  H  H207  1  0.82270000  0.83790000  0.16890000  1.0
  C  C208  1  0.00206000  0.38270000  0.99671000  1.0
  C  C209  1  0.03290000  0.81200000  0.41119000  1.0
  C  C210  1  0.12390000  0.75750000  0.50268000  1.0
  C  C211  1  0.05978000  0.80210000  0.47046000  1.0
  C  C212  1  0.27750000  0.63690000  0.00955000  1.0
  C  C213  1  0.23588000  0.56670000  0.38856000  1.0
  C  C214  1  0.21950000  0.65050000  0.89247000  1.0
  C  C215  1  0.94266000  0.34240000  0.96551000  1.0
  C  C216  1  0.09703000  0.46860000  0.00150000  1.0
  C  C217  1  0.02603000  0.83620000  0.50012000  1.0
  C  C218  1  0.20969000  0.72630000  0.58792000  1.0
  C  C219  1  0.96628000  0.87610000  0.46948000  1.0
  C  C220  1  0.03248000  0.42470000  0.96740000  1.0
  C  C221  1  0.30580000  0.50690000  0.24289000  1.0
  C  C222  1  0.21522000  0.59980000  0.97813000  1.0
  C  C223  1  0.17740000  0.45670000  0.18173000  1.0
  C  C224  1  0.00162000  0.42450000  0.90749000  1.0
  C  C225  1  0.32611000  0.54060000  0.47437000  1.0
  C  C226  1  0.24281000  0.73610000  0.65192000  1.0
  C  C227  1  0.32660000  0.70250000  0.74469000  1.0
  C  C228  1  0.30760000  0.67870000  0.97963000  1.0
  C  C229  1  0.29848000  0.58440000  0.50512000  1.0
  C  C230  1  0.97348000  0.85450000  0.38442000  1.0
  C  C231  1  0.17909000  0.50210000  0.08844000  1.0
  C  C232  1  0.20600000  0.67270000  0.50572000  1.0
  C  C233  1  0.94273000  0.38100000  0.87967000  1.0
  C  C234  1  0.27680000  0.51770000  0.18374000  1.0
  C  C235  1  0.18585000  0.60800000  0.91853000  1.0
  C  C236  1  0.18198000  0.55040000  0.00718000  1.0
  C  C237  1  0.21020000  0.44820000  0.24074000  1.0
  C  C238  1  0.23636000  0.62200000  0.47502000  1.0
  C  C239  1  0.21073000  0.49280000  0.15211000  1.0
  C  C240  1  0.20471000  0.61170000  0.41534000  1.0
  C  C241  1  0.21510000  0.78780000  0.67851000  1.0
  C  C242  1  0.24440000  0.79290000  0.73784000  1.0
  C  C243  1  0.30120000  0.69450000  0.68564000  1.0
  C  C244  1  0.50206000  0.88270000  0.99671000  1.0
  C  C245  1  0.53290000  0.31200000  0.41119000  1.0
  C  C246  1  0.62390000  0.25750000  0.50268000  1.0
  C  C247  1  0.55978000  0.30210000  0.47046000  1.0
  C  C248  1  0.77750000  0.13690000  0.00955000  1.0
  C  C249  1  0.73588000  0.06670000  0.38856000  1.0
  C  C250  1  0.71950000  0.15050000  0.89247000  1.0
  C  C251  1  0.44266000  0.84240000  0.96551000  1.0
  C  C252  1  0.59703000  0.96860000  0.00150000  1.0
  C  C253  1  0.52603000  0.33620000  0.50012000  1.0
  C  C254  1  0.70969000  0.22630000  0.58792000  1.0
  C  C255  1  0.46628000  0.37610000  0.46948000  1.0
  C  C256  1  0.53248000  0.92470000  0.96740000  1.0
  C  C257  1  0.80580000  0.00690000  0.24289000  1.0
  C  C258  1  0.71522000  0.09980000  0.97813000  1.0
  C  C259  1  0.67740000  0.95670000  0.18173000  1.0
  C  C260  1  0.50162000  0.92450000  0.90749000  1.0
  C  C261  1  0.82611000  0.04060000  0.47437000  1.0
  C  C262  1  0.74281000  0.23610000  0.65192000  1.0
  C  C263  1  0.82660000  0.20250000  0.74469000  1.0
  C  C264  1  0.80760000  0.17870000  0.97963000  1.0
  C  C265  1  0.79848000  0.08440000  0.50512000  1.0
  C  C266  1  0.47348000  0.35450000  0.38442000  1.0
  C  C267  1  0.67909000  0.00210000  0.08844000  1.0
  C  C268  1  0.70600000  0.17270000  0.50572000  1.0
  C  C269  1  0.44273000  0.88100000  0.87967000  1.0
  C  C270  1  0.77680000  0.01770000  0.18374000  1.0
  C  C271  1  0.68585000  0.10800000  0.91853000  1.0
  C  C272  1  0.68198000  0.05040000  0.00718000  1.0
  C  C273  1  0.71020000  0.94820000  0.24074000  1.0
  C  C274  1  0.73636000  0.12200000  0.47502000  1.0
  C  C275  1  0.71073000  0.99280000  0.15211000  1.0
  C  C276  1  0.70471000  0.11170000  0.41534000  1.0
  C  C277  1  0.71510000  0.28780000  0.67851000  1.0
  C  C278  1  0.74440000  0.29290000  0.73784000  1.0
  C  C279  1  0.80120000  0.19450000  0.68564000  1.0
  C  C280  1  0.99794000  0.38270000  0.50329000  1.0
  C  C281  1  0.96710000  0.81200000  0.08881000  1.0
  C  C282  1  0.87610000  0.75750000  0.99732000  1.0
  C  C283  1  0.94022000  0.80210000  0.02954000  1.0
  C  C284  1  0.72250000  0.63690000  0.49045000  1.0
  C  C285  1  0.76412000  0.56670000  0.11144000  1.0
  C  C286  1  0.78050000  0.65050000  0.60753000  1.0
  C  C287  1  0.05734000  0.34240000  0.53449000  1.0
  C  C288  1  0.90297000  0.46860000  0.49850000  1.0
  C  C289  1  0.97397000  0.83620000  0.99988000  1.0
  C  C290  1  0.79031000  0.72630000  0.91208000  1.0
  C  C291  1  0.03372000  0.87610000  0.03052000  1.0
  C  C292  1  0.96752000  0.42470000  0.53260000  1.0
  C  C293  1  0.69420000  0.50690000  0.25711000  1.0
  C  C294  1  0.78478000  0.59980000  0.52187000  1.0
  C  C295  1  0.82260000  0.45670000  0.31827000  1.0
  C  C296  1  0.99838000  0.42450000  0.59251000  1.0
  C  C297  1  0.67389000  0.54060000  0.02563000  1.0
  C  C298  1  0.75719000  0.73610000  0.84808000  1.0
  C  C299  1  0.67340000  0.70250000  0.75531000  1.0
  C  C300  1  0.69240000  0.67870000  0.52037000  1.0
  C  C301  1  0.70152000  0.58440000  0.99488000  1.0
  C  C302  1  0.02652000  0.85450000  0.11558000  1.0
  C  C303  1  0.82091000  0.50210000  0.41156000  1.0
  C  C304  1  0.79400000  0.67270000  0.99428000  1.0
  C  C305  1  0.05727000  0.38100000  0.62033000  1.0
  C  C306  1  0.72320000  0.51770000  0.31626000  1.0
  C  C307  1  0.81415000  0.60800000  0.58147000  1.0
  C  C308  1  0.81802000  0.55040000  0.49282000  1.0
  C  C309  1  0.78980000  0.44820000  0.25926000  1.0
  C  C310  1  0.76364000  0.62200000  0.02498000  1.0
  C  C311  1  0.78927000  0.49280000  0.34789000  1.0
  C  C312  1  0.79529000  0.61170000  0.08466000  1.0
  C  C313  1  0.78490000  0.78780000  0.82149000  1.0
  C  C314  1  0.75560000  0.79290000  0.76216000  1.0
  C  C315  1  0.69880000  0.69450000  0.81436000  1.0
  C  C316  1  0.49794000  0.88270000  0.50329000  1.0
  C  C317  1  0.46710000  0.31200000  0.08881000  1.0
  C  C318  1  0.37610000  0.25750000  0.99732000  1.0
  C  C319  1  0.44022000  0.30210000  0.02954000  1.0
  C  C320  1  0.22250000  0.13690000  0.49045000  1.0
  C  C321  1  0.26412000  0.06670000  0.11144000  1.0
  C  C322  1  0.28050000  0.15050000  0.60753000  1.0
  C  C323  1  0.55734000  0.84240000  0.53449000  1.0
  C  C324  1  0.40297000  0.96860000  0.49850000  1.0
  C  C325  1  0.47397000  0.33620000  0.99988000  1.0
  C  C326  1  0.29031000  0.22630000  0.91208000  1.0
  C  C327  1  0.53372000  0.37610000  0.03052000  1.0
  C  C328  1  0.46752000  0.92470000  0.53260000  1.0
  C  C329  1  0.19420000  0.00690000  0.25711000  1.0
  C  C330  1  0.28478000  0.09980000  0.52187000  1.0
  C  C331  1  0.32260000  0.95670000  0.31827000  1.0
  C  C332  1  0.49838000  0.92450000  0.59251000  1.0
  C  C333  1  0.17389000  0.04060000  0.02563000  1.0
  C  C334  1  0.25719000  0.23610000  0.84808000  1.0
  C  C335  1  0.17340000  0.20250000  0.75531000  1.0
  C  C336  1  0.19240000  0.17870000  0.52037000  1.0
  C  C337  1  0.20152000  0.08440000  0.99488000  1.0
  C  C338  1  0.52652000  0.35450000  0.11558000  1.0
  C  C339  1  0.32091000  0.00210000  0.41156000  1.0
  C  C340  1  0.29400000  0.17270000  0.99428000  1.0
  C  C341  1  0.55727000  0.88100000  0.62033000  1.0
  C  C342  1  0.22320000  0.01770000  0.31626000  1.0
  C  C343  1  0.31415000  0.10800000  0.58147000  1.0
  C  C344  1  0.31802000  0.05040000  0.49282000  1.0
  C  C345  1  0.28980000  0.94820000  0.25926000  1.0
  C  C346  1  0.26364000  0.12200000  0.02498000  1.0
  C  C347  1  0.28927000  0.99280000  0.34789000  1.0
  C  C348  1  0.29529000  0.11170000  0.08466000  1.0
  C  C349  1  0.28490000  0.28780000  0.82149000  1.0
  C  C350  1  0.25560000  0.29290000  0.76216000  1.0
  C  C351  1  0.19880000  0.19450000  0.81436000  1.0
  C  C352  1  0.99794000  0.61730000  0.00329000  1.0
  C  C353  1  0.96710000  0.18800000  0.58881000  1.0
  C  C354  1  0.87610000  0.24250000  0.49732000  1.0
  C  C355  1  0.94022000  0.19790000  0.52954000  1.0
  C  C356  1  0.72250000  0.36310000  0.99045000  1.0
  C  C357  1  0.76412000  0.43330000  0.61144000  1.0
  C  C358  1  0.78050000  0.34950000  0.10753000  1.0
  C  C359  1  0.05734000  0.65760000  0.03449000  1.0
  C  C360  1  0.90297000  0.53140000  0.99850000  1.0
  C  C361  1  0.97397000  0.16380000  0.49988000  1.0
  C  C362  1  0.79031000  0.27370000  0.41208000  1.0
  C  C363  1  0.03372000  0.12390000  0.53052000  1.0
  C  C364  1  0.96752000  0.57530000  0.03260000  1.0
  C  C365  1  0.69420000  0.49310000  0.75711000  1.0
  C  C366  1  0.78478000  0.40020000  0.02187000  1.0
  C  C367  1  0.82260000  0.54330000  0.81827000  1.0
  C  C368  1  0.99838000  0.57550000  0.09251000  1.0
  C  C369  1  0.67389000  0.45940000  0.52563000  1.0
  C  C370  1  0.75719000  0.26390000  0.34808000  1.0
  C  C371  1  0.67340000  0.29750000  0.25531000  1.0
  C  C372  1  0.69240000  0.32130000  0.02037000  1.0
  C  C373  1  0.70152000  0.41560000  0.49488000  1.0
  C  C374  1  0.02652000  0.14550000  0.61558000  1.0
  C  C375  1  0.82091000  0.49790000  0.91156000  1.0
  C  C376  1  0.79400000  0.32730000  0.49428000  1.0
  C  C377  1  0.05727000  0.61900000  0.12033000  1.0
  C  C378  1  0.72320000  0.48230000  0.81626000  1.0
  C  C379  1  0.81415000  0.39200000  0.08147000  1.0
  C  C380  1  0.81802000  0.44960000  0.99282000  1.0
  C  C381  1  0.78980000  0.55180000  0.75926000  1.0
  C  C382  1  0.76364000  0.37800000  0.52498000  1.0
  C  C383  1  0.78927000  0.50720000  0.84789000  1.0
  C  C384  1  0.79529000  0.38830000  0.58466000  1.0
  C  C385  1  0.78490000  0.21220000  0.32149000  1.0
  C  C386  1  0.75560000  0.20710000  0.26216000  1.0
  C  C387  1  0.69880000  0.30550000  0.31436000  1.0
  C  C388  1  0.49794000  0.11730000  0.00329000  1.0
  C  C389  1  0.46710000  0.68800000  0.58881000  1.0
  C  C390  1  0.37610000  0.74250000  0.49732000  1.0
  C  C391  1  0.44022000  0.69790000  0.52954000  1.0
  C  C392  1  0.22250000  0.86310000  0.99045000  1.0
  C  C393  1  0.26412000  0.93330000  0.61144000  1.0
  C  C394  1  0.28050000  0.84950000  0.10753000  1.0
  C  C395  1  0.55734000  0.15760000  0.03449000  1.0
  C  C396  1  0.40297000  0.03140000  0.99850000  1.0
  C  C397  1  0.47397000  0.66380000  0.49988000  1.0
  C  C398  1  0.29031000  0.77370000  0.41208000  1.0
  C  C399  1  0.53372000  0.62390000  0.53052000  1.0
  C  C400  1  0.46752000  0.07530000  0.03260000  1.0
  C  C401  1  0.19420000  0.99310000  0.75711000  1.0
  C  C402  1  0.28478000  0.90020000  0.02187000  1.0
  C  C403  1  0.32260000  0.04330000  0.81827000  1.0
  C  C404  1  0.49838000  0.07550000  0.09251000  1.0
  C  C405  1  0.17389000  0.95940000  0.52563000  1.0
  C  C406  1  0.25719000  0.76390000  0.34808000  1.0
  C  C407  1  0.17340000  0.79750000  0.25531000  1.0
  C  C408  1  0.19240000  0.82130000  0.02037000  1.0
  C  C409  1  0.20152000  0.91560000  0.49488000  1.0
  C  C410  1  0.52652000  0.64550000  0.61558000  1.0
  C  C411  1  0.32091000  0.99790000  0.91156000  1.0
  C  C412  1  0.29400000  0.82730000  0.49428000  1.0
  C  C413  1  0.55727000  0.11900000  0.12033000  1.0
  C  C414  1  0.22320000  0.98230000  0.81626000  1.0
  C  C415  1  0.31415000  0.89200000  0.08147000  1.0
  C  C416  1  0.31802000  0.94960000  0.99282000  1.0
  C  C417  1  0.28980000  0.05180000  0.75926000  1.0
  C  C418  1  0.26364000  0.87800000  0.52498000  1.0
  C  C419  1  0.28927000  0.00720000  0.84789000  1.0
  C  C420  1  0.29529000  0.88830000  0.58466000  1.0
  C  C421  1  0.28490000  0.71220000  0.32149000  1.0
  C  C422  1  0.25560000  0.70710000  0.26216000  1.0
  C  C423  1  0.19880000  0.80550000  0.31436000  1.0
  C  C424  1  0.00206000  0.61730000  0.49671000  1.0
  C  C425  1  0.03290000  0.18800000  0.91119000  1.0
  C  C426  1  0.12390000  0.24250000  0.00268000  1.0
  C  C427  1  0.05978000  0.19790000  0.97046000  1.0
  C  C428  1  0.27750000  0.36310000  0.50955000  1.0
  C  C429  1  0.23588000  0.43330000  0.88856000  1.0
  C  C430  1  0.21950000  0.34950000  0.39247000  1.0
  C  C431  1  0.94266000  0.65760000  0.46551000  1.0
  C  C432  1  0.09703000  0.53140000  0.50150000  1.0
  C  C433  1  0.02603000  0.16380000  0.00012000  1.0
  C  C434  1  0.20969000  0.27370000  0.08792000  1.0
  C  C435  1  0.96628000  0.12390000  0.96948000  1.0
  C  C436  1  0.03248000  0.57530000  0.46740000  1.0
  C  C437  1  0.30580000  0.49310000  0.74289000  1.0
  C  C438  1  0.21522000  0.40020000  0.47813000  1.0
  C  C439  1  0.17740000  0.54330000  0.68173000  1.0
  C  C440  1  0.00162000  0.57550000  0.40749000  1.0
  C  C441  1  0.32611000  0.45940000  0.97437000  1.0
  C  C442  1  0.24281000  0.26390000  0.15192000  1.0
  C  C443  1  0.32660000  0.29750000  0.24469000  1.0
  C  C444  1  0.30760000  0.32130000  0.47963000  1.0
  C  C445  1  0.29848000  0.41560000  0.00512000  1.0
  C  C446  1  0.97348000  0.14550000  0.88442000  1.0
  C  C447  1  0.17909000  0.49790000  0.58844000  1.0
  C  C448  1  0.20600000  0.32730000  0.00572000  1.0
  C  C449  1  0.94273000  0.61900000  0.37967000  1.0
  C  C450  1  0.27680000  0.48230000  0.68374000  1.0
  C  C451  1  0.18585000  0.39200000  0.41853000  1.0
  C  C452  1  0.18198000  0.44960000  0.50718000  1.0
  C  C453  1  0.21020000  0.55180000  0.74074000  1.0
  C  C454  1  0.23636000  0.37800000  0.97502000  1.0
  C  C455  1  0.21073000  0.50720000  0.65211000  1.0
  C  C456  1  0.20471000  0.38830000  0.91534000  1.0
  C  C457  1  0.21510000  0.21220000  0.17851000  1.0
  C  C458  1  0.24440000  0.20710000  0.23784000  1.0
  C  C459  1  0.30120000  0.30550000  0.18564000  1.0
  C  C460  1  0.50206000  0.11730000  0.49671000  1.0
  C  C461  1  0.53290000  0.68800000  0.91119000  1.0
  C  C462  1  0.62390000  0.74250000  0.00268000  1.0
  C  C463  1  0.55978000  0.69790000  0.97046000  1.0
  C  C464  1  0.77750000  0.86310000  0.50955000  1.0
  C  C465  1  0.73588000  0.93330000  0.88856000  1.0
  C  C466  1  0.71950000  0.84950000  0.39247000  1.0
  C  C467  1  0.44266000  0.15760000  0.46551000  1.0
  C  C468  1  0.59703000  0.03140000  0.50150000  1.0
  C  C469  1  0.52603000  0.66380000  0.00012000  1.0
  C  C470  1  0.70969000  0.77370000  0.08792000  1.0
  C  C471  1  0.46628000  0.62390000  0.96948000  1.0
  C  C472  1  0.53248000  0.07530000  0.46740000  1.0
  C  C473  1  0.80580000  0.99310000  0.74289000  1.0
  C  C474  1  0.71522000  0.90020000  0.47813000  1.0
  C  C475  1  0.67740000  0.04330000  0.68173000  1.0
  C  C476  1  0.50162000  0.07550000  0.40749000  1.0
  C  C477  1  0.82611000  0.95940000  0.97437000  1.0
  C  C478  1  0.74281000  0.76390000  0.15192000  1.0
  C  C479  1  0.82660000  0.79750000  0.24469000  1.0
  C  C480  1  0.80760000  0.82130000  0.47963000  1.0
  C  C481  1  0.79848000  0.91560000  0.00512000  1.0
  C  C482  1  0.47348000  0.64550000  0.88442000  1.0
  C  C483  1  0.67909000  0.99790000  0.58844000  1.0
  C  C484  1  0.70600000  0.82730000  0.00572000  1.0
  C  C485  1  0.44273000  0.11900000  0.37967000  1.0
  C  C486  1  0.77680000  0.98230000  0.68374000  1.0
  C  C487  1  0.68585000  0.89200000  0.41853000  1.0
  C  C488  1  0.68198000  0.94960000  0.50718000  1.0
  C  C489  1  0.71020000  0.05180000  0.74074000  1.0
  C  C490  1  0.73636000  0.87800000  0.97502000  1.0
  C  C491  1  0.71073000  0.00720000  0.65211000  1.0
  C  C492  1  0.70471000  0.88830000  0.91534000  1.0
  C  C493  1  0.71510000  0.71220000  0.17851000  1.0
  C  C494  1  0.74440000  0.70710000  0.23784000  1.0
  C  C495  1  0.80120000  0.80550000  0.18564000  1.0
  N  N496  1  0.91234000  0.34010000  0.90746000  1.0
  N  N497  1  0.27410000  0.47260000  0.27180000  1.0
  N  N498  1  0.27963000  0.68523000  0.92160000  1.0
  N  N499  1  0.12583000  0.50940000  0.97338000  1.0
  N  N500  1  0.12131000  0.46200000  0.05897000  1.0
  N  N501  1  0.21046000  0.54880000  0.06488000  1.0
  N  N502  1  0.29632000  0.53110000  0.41691000  1.0
  N  N503  1  0.93886000  0.88510000  0.41184000  1.0
  N  N504  1  0.29904000  0.74940000  0.77171000  1.0
  N  N505  1  0.14806000  0.71050000  0.47292000  1.0
  N  N506  1  0.15314000  0.76830000  0.55984000  1.0
  N  N507  1  0.23848000  0.67730000  0.56333000  1.0
  N  N508  1  0.41234000  0.84010000  0.90746000  1.0
  N  N509  1  0.77410000  0.97260000  0.27180000  1.0
  N  N510  1  0.77963000  0.18523000  0.92160000  1.0
  N  N511  1  0.62583000  0.00940000  0.97338000  1.0
  N  N512  1  0.62131000  0.96200000  0.05897000  1.0
  N  N513  1  0.71046000  0.04880000  0.06488000  1.0
  N  N514  1  0.79632000  0.03110000  0.41691000  1.0
  N  N515  1  0.43886000  0.38510000  0.41184000  1.0
  N  N516  1  0.79904000  0.24940000  0.77171000  1.0
  N  N517  1  0.64806000  0.21050000  0.47292000  1.0
  N  N518  1  0.65314000  0.26830000  0.55984000  1.0
  N  N519  1  0.73848000  0.17730000  0.56333000  1.0
  N  N520  1  0.08766000  0.34010000  0.59254000  1.0
  N  N521  1  0.72590000  0.47260000  0.22820000  1.0
  N  N522  1  0.72037000  0.68523000  0.57840000  1.0
  N  N523  1  0.87417000  0.50940000  0.52662000  1.0
  N  N524  1  0.87869000  0.46200000  0.44103000  1.0
  N  N525  1  0.78954000  0.54880000  0.43512000  1.0
  N  N526  1  0.70368000  0.53110000  0.08309000  1.0
  N  N527  1  0.06114000  0.88510000  0.08816000  1.0
  N  N528  1  0.70096000  0.74940000  0.72829000  1.0
  N  N529  1  0.85194000  0.71050000  0.02708000  1.0
  N  N530  1  0.84686000  0.76830000  0.94016000  1.0
  N  N531  1  0.76152000  0.67730000  0.93667000  1.0
  N  N532  1  0.58766000  0.84010000  0.59254000  1.0
  N  N533  1  0.22590000  0.97260000  0.22820000  1.0
  N  N534  1  0.22037000  0.18523000  0.57840000  1.0
  N  N535  1  0.37417000  0.00940000  0.52662000  1.0
  N  N536  1  0.37869000  0.96200000  0.44103000  1.0
  N  N537  1  0.28954000  0.04880000  0.43512000  1.0
  N  N538  1  0.20368000  0.03110000  0.08309000  1.0
  N  N539  1  0.56114000  0.38510000  0.08816000  1.0
  N  N540  1  0.20096000  0.24940000  0.72829000  1.0
  N  N541  1  0.35194000  0.21050000  0.02708000  1.0
  N  N542  1  0.34686000  0.26830000  0.94016000  1.0
  N  N543  1  0.26152000  0.17730000  0.93667000  1.0
  N  N544  1  0.08766000  0.65990000  0.09254000  1.0
  N  N545  1  0.72590000  0.52740000  0.72820000  1.0
  N  N546  1  0.72037000  0.31477000  0.07840000  1.0
  N  N547  1  0.87417000  0.49060000  0.02662000  1.0
  N  N548  1  0.87869000  0.53800000  0.94103000  1.0
  N  N549  1  0.78954000  0.45120000  0.93512000  1.0
  N  N550  1  0.70368000  0.46890000  0.58309000  1.0
  N  N551  1  0.06114000  0.11490000  0.58816000  1.0
  N  N552  1  0.70096000  0.25060000  0.22829000  1.0
  N  N553  1  0.85194000  0.28950000  0.52708000  1.0
  N  N554  1  0.84686000  0.23170000  0.44016000  1.0
  N  N555  1  0.76152000  0.32270000  0.43667000  1.0
  N  N556  1  0.58766000  0.15990000  0.09254000  1.0
  N  N557  1  0.22590000  0.02740000  0.72820000  1.0
  N  N558  1  0.22037000  0.81477000  0.07840000  1.0
  N  N559  1  0.37417000  0.99060000  0.02662000  1.0
  N  N560  1  0.37869000  0.03800000  0.94103000  1.0
  N  N561  1  0.28954000  0.95120000  0.93512000  1.0
  N  N562  1  0.20368000  0.96890000  0.58309000  1.0
  N  N563  1  0.56114000  0.61490000  0.58816000  1.0
  N  N564  1  0.20096000  0.75060000  0.22829000  1.0
  N  N565  1  0.35194000  0.78950000  0.52708000  1.0
  N  N566  1  0.34686000  0.73170000  0.44016000  1.0
  N  N567  1  0.26152000  0.82270000  0.43667000  1.0
  N  N568  1  0.91234000  0.65990000  0.40746000  1.0
  N  N569  1  0.27410000  0.52740000  0.77180000  1.0
  N  N570  1  0.27963000  0.31477000  0.42160000  1.0
  N  N571  1  0.12583000  0.49060000  0.47338000  1.0
  N  N572  1  0.12131000  0.53800000  0.55897000  1.0
  N  N573  1  0.21046000  0.45120000  0.56488000  1.0
  N  N574  1  0.29632000  0.46890000  0.91691000  1.0
  N  N575  1  0.93886000  0.11490000  0.91184000  1.0
  N  N576  1  0.29904000  0.25060000  0.27171000  1.0
  N  N577  1  0.14806000  0.28950000  0.97292000  1.0
  N  N578  1  0.15314000  0.23170000  0.05984000  1.0
  N  N579  1  0.23848000  0.32270000  0.06333000  1.0
  N  N580  1  0.41234000  0.15990000  0.40746000  1.0
  N  N581  1  0.77410000  0.02740000  0.77180000  1.0
  N  N582  1  0.77963000  0.81477000  0.42160000  1.0
  N  N583  1  0.62583000  0.99060000  0.47338000  1.0
  N  N584  1  0.62131000  0.03800000  0.55897000  1.0
  N  N585  1  0.71046000  0.95120000  0.56488000  1.0
  N  N586  1  0.79632000  0.96890000  0.91691000  1.0
  N  N587  1  0.43886000  0.61490000  0.91184000  1.0
  N  N588  1  0.79904000  0.75060000  0.27171000  1.0
  N  N589  1  0.64806000  0.78950000  0.97292000  1.0
  N  N590  1  0.65314000  0.73170000  0.05984000  1.0
  N  N591  1  0.73848000  0.82270000  0.06333000  1.0
