# generated using pymatgen
data_AgH12(C3N)6
_symmetry_space_group_name_H-M   'P 1'
_cell_length_a   22.01210000
_cell_length_b   16.53010000
_cell_length_c   25.66410000
_cell_angle_alpha   90.00000000
_cell_angle_beta   115.38600000
_cell_angle_gamma   90.00000000
_symmetry_Int_Tables_number   1
_chemical_formula_structural   AgH12(C3N)6
_chemical_formula_sum   'Ag16 H192 C288 N96'
_cell_volume   8436.50071753
_cell_formula_units_Z   16
loop_
 _symmetry_equiv_pos_site_id
 _symmetry_equiv_pos_as_xyz
  1  'x, y, z'
loop_
 _atom_site_type_symbol
 _atom_site_label
 _atom_site_symmetry_multiplicity
 _atom_site_fract_x
 _atom_site_fract_y
 _atom_site_fract_z
 _atom_site_occupancy
  Ag  Ag0  1  0.77392000  0.70883000  0.36825000  1.0
  Ag  Ag1  1  0.29482000  0.00096000  0.86769000  1.0
  Ag  Ag2  1  0.27392000  0.20883000  0.36825000  1.0
  Ag  Ag3  1  0.79482000  0.50096000  0.86769000  1.0
  Ag  Ag4  1  0.22608000  0.70883000  0.13175000  1.0
  Ag  Ag5  1  0.70518000  0.00096000  0.63231000  1.0
  Ag  Ag6  1  0.72608000  0.20883000  0.13175000  1.0
  Ag  Ag7  1  0.20518000  0.50096000  0.63231000  1.0
  Ag  Ag8  1  0.22608000  0.29117000  0.63175000  1.0
  Ag  Ag9  1  0.70518000  0.99904000  0.13231000  1.0
  Ag  Ag10  1  0.72608000  0.79117000  0.63175000  1.0
  Ag  Ag11  1  0.20518000  0.49904000  0.13231000  1.0
  Ag  Ag12  1  0.77392000  0.29117000  0.86825000  1.0
  Ag  Ag13  1  0.29482000  0.99904000  0.36769000  1.0
  Ag  Ag14  1  0.27392000  0.79117000  0.86825000  1.0
  Ag  Ag15  1  0.79482000  0.49904000  0.36769000  1.0
  H  H16  1  0.90380000  0.40560000  0.85270000  1.0
  H  H17  1  0.08560000  0.03980000  0.39000000  1.0
  H  H18  1  0.88510000  0.81060000  0.34920000  1.0
  H  H19  1  0.00070000  0.38420000  0.04950000  1.0
  H  H20  1  0.26420000  0.13320000  0.03690000  1.0
  H  H21  1  0.24610000  0.08170000  0.53970000  1.0
  H  H22  1  0.98100000  0.88510000  0.39420000  1.0
  H  H23  1  0.31210000  0.06510000  0.98590000  1.0
  H  H24  1  0.29450000  0.14870000  0.48980000  1.0
  H  H25  1  0.32160000  0.17430000  0.25970000  1.0
  H  H26  1  0.00150000  0.33490000  0.89670000  1.0
  H  H27  1  0.13830000  0.11270000  0.34470000  1.0
  H  H28  1  0.16370000  0.27480000  0.26380000  1.0
  H  H29  1  0.97470000  0.83780000  0.54530000  1.0
  H  H30  1  0.27690000  0.18940000  0.16120000  1.0
  H  H31  1  0.22840000  0.06830000  0.65660000  1.0
  H  H32  1  0.27750000  0.07930000  0.75490000  1.0
  H  H33  1  0.11430000  0.29230000  0.16620000  1.0
  H  H34  1  0.87760000  0.76690000  0.49520000  1.0
  H  H35  1  0.90190000  0.45290000  0.00090000  1.0
  H  H36  1  0.09590000  0.91210000  0.66890000  1.0
  H  H37  1  0.11590000  0.20310000  0.88680000  1.0
  H  H38  1  0.15040000  0.92480000  0.76660000  1.0
  H  H39  1  0.16590000  0.12960000  0.83990000  1.0
  H  H40  1  0.40380000  0.90560000  0.85270000  1.0
  H  H41  1  0.58560000  0.53980000  0.39000000  1.0
  H  H42  1  0.38510000  0.31060000  0.34920000  1.0
  H  H43  1  0.50070000  0.88420000  0.04950000  1.0
  H  H44  1  0.76420000  0.63320000  0.03690000  1.0
  H  H45  1  0.74610000  0.58170000  0.53970000  1.0
  H  H46  1  0.48100000  0.38510000  0.39420000  1.0
  H  H47  1  0.81210000  0.56510000  0.98590000  1.0
  H  H48  1  0.79450000  0.64870000  0.48980000  1.0
  H  H49  1  0.82160000  0.67430000  0.25970000  1.0
  H  H50  1  0.50150000  0.83490000  0.89670000  1.0
  H  H51  1  0.63830000  0.61270000  0.34470000  1.0
  H  H52  1  0.66370000  0.77480000  0.26380000  1.0
  H  H53  1  0.47470000  0.33780000  0.54530000  1.0
  H  H54  1  0.77690000  0.68940000  0.16120000  1.0
  H  H55  1  0.72840000  0.56830000  0.65660000  1.0
  H  H56  1  0.77750000  0.57930000  0.75490000  1.0
  H  H57  1  0.61430000  0.79230000  0.16620000  1.0
  H  H58  1  0.37760000  0.26690000  0.49520000  1.0
  H  H59  1  0.40190000  0.95290000  0.00090000  1.0
  H  H60  1  0.59590000  0.41210000  0.66890000  1.0
  H  H61  1  0.61590000  0.70310000  0.88680000  1.0
  H  H62  1  0.65040000  0.42480000  0.76660000  1.0
  H  H63  1  0.66590000  0.62960000  0.83990000  1.0
  H  H64  1  0.09620000  0.40560000  0.64730000  1.0
  H  H65  1  0.91440000  0.03980000  0.11000000  1.0
  H  H66  1  0.11490000  0.81060000  0.15080000  1.0
  H  H67  1  0.99930000  0.38420000  0.45050000  1.0
  H  H68  1  0.73580000  0.13320000  0.46310000  1.0
  H  H69  1  0.75390000  0.08170000  0.96030000  1.0
  H  H70  1  0.01900000  0.88510000  0.10580000  1.0
  H  H71  1  0.68790000  0.06510000  0.51410000  1.0
  H  H72  1  0.70550000  0.14870000  0.01020000  1.0
  H  H73  1  0.67840000  0.17430000  0.24030000  1.0
  H  H74  1  0.99850000  0.33490000  0.60330000  1.0
  H  H75  1  0.86170000  0.11270000  0.15530000  1.0
  H  H76  1  0.83630000  0.27480000  0.23620000  1.0
  H  H77  1  0.02530000  0.83780000  0.95470000  1.0
  H  H78  1  0.72310000  0.18940000  0.33880000  1.0
  H  H79  1  0.77160000  0.06830000  0.84340000  1.0
  H  H80  1  0.72250000  0.07930000  0.74510000  1.0
  H  H81  1  0.88570000  0.29230000  0.33380000  1.0
  H  H82  1  0.12240000  0.76690000  0.00480000  1.0
  H  H83  1  0.09810000  0.45290000  0.49910000  1.0
  H  H84  1  0.90410000  0.91210000  0.83110000  1.0
  H  H85  1  0.88410000  0.20310000  0.61320000  1.0
  H  H86  1  0.84960000  0.92480000  0.73340000  1.0
  H  H87  1  0.83410000  0.12960000  0.66010000  1.0
  H  H88  1  0.59620000  0.90560000  0.64730000  1.0
  H  H89  1  0.41440000  0.53980000  0.11000000  1.0
  H  H90  1  0.61490000  0.31060000  0.15080000  1.0
  H  H91  1  0.49930000  0.88420000  0.45050000  1.0
  H  H92  1  0.23580000  0.63320000  0.46310000  1.0
  H  H93  1  0.25390000  0.58170000  0.96030000  1.0
  H  H94  1  0.51900000  0.38510000  0.10580000  1.0
  H  H95  1  0.18790000  0.56510000  0.51410000  1.0
  H  H96  1  0.20550000  0.64870000  0.01020000  1.0
  H  H97  1  0.17840000  0.67430000  0.24030000  1.0
  H  H98  1  0.49850000  0.83490000  0.60330000  1.0
  H  H99  1  0.36170000  0.61270000  0.15530000  1.0
  H  H100  1  0.33630000  0.77480000  0.23620000  1.0
  H  H101  1  0.52530000  0.33780000  0.95470000  1.0
  H  H102  1  0.22310000  0.68940000  0.33880000  1.0
  H  H103  1  0.27160000  0.56830000  0.84340000  1.0
  H  H104  1  0.22250000  0.57930000  0.74510000  1.0
  H  H105  1  0.38570000  0.79230000  0.33380000  1.0
  H  H106  1  0.62240000  0.26690000  0.00480000  1.0
  H  H107  1  0.59810000  0.95290000  0.49910000  1.0
  H  H108  1  0.40410000  0.41210000  0.83110000  1.0
  H  H109  1  0.38410000  0.70310000  0.61320000  1.0
  H  H110  1  0.34960000  0.42480000  0.73340000  1.0
  H  H111  1  0.33410000  0.62960000  0.66010000  1.0
  H  H112  1  0.09620000  0.59440000  0.14730000  1.0
  H  H113  1  0.91440000  0.96020000  0.61000000  1.0
  H  H114  1  0.11490000  0.18940000  0.65080000  1.0
  H  H115  1  0.99930000  0.61580000  0.95050000  1.0
  H  H116  1  0.73580000  0.86680000  0.96310000  1.0
  H  H117  1  0.75390000  0.91830000  0.46030000  1.0
  H  H118  1  0.01900000  0.11490000  0.60580000  1.0
  H  H119  1  0.68790000  0.93490000  0.01410000  1.0
  H  H120  1  0.70550000  0.85130000  0.51020000  1.0
  H  H121  1  0.67840000  0.82570000  0.74030000  1.0
  H  H122  1  0.99850000  0.66510000  0.10330000  1.0
  H  H123  1  0.86170000  0.88730000  0.65530000  1.0
  H  H124  1  0.83630000  0.72520000  0.73620000  1.0
  H  H125  1  0.02530000  0.16220000  0.45470000  1.0
  H  H126  1  0.72310000  0.81060000  0.83880000  1.0
  H  H127  1  0.77160000  0.93170000  0.34340000  1.0
  H  H128  1  0.72250000  0.92070000  0.24510000  1.0
  H  H129  1  0.88570000  0.70770000  0.83380000  1.0
  H  H130  1  0.12240000  0.23310000  0.50480000  1.0
  H  H131  1  0.09810000  0.54710000  0.99910000  1.0
  H  H132  1  0.90410000  0.08790000  0.33110000  1.0
  H  H133  1  0.88410000  0.79690000  0.11320000  1.0
  H  H134  1  0.84960000  0.07520000  0.23340000  1.0
  H  H135  1  0.83410000  0.87040000  0.16010000  1.0
  H  H136  1  0.59620000  0.09440000  0.14730000  1.0
  H  H137  1  0.41440000  0.46020000  0.61000000  1.0
  H  H138  1  0.61490000  0.68940000  0.65080000  1.0
  H  H139  1  0.49930000  0.11580000  0.95050000  1.0
  H  H140  1  0.23580000  0.36680000  0.96310000  1.0
  H  H141  1  0.25390000  0.41830000  0.46030000  1.0
  H  H142  1  0.51900000  0.61490000  0.60580000  1.0
  H  H143  1  0.18790000  0.43490000  0.01410000  1.0
  H  H144  1  0.20550000  0.35130000  0.51020000  1.0
  H  H145  1  0.17840000  0.32570000  0.74030000  1.0
  H  H146  1  0.49850000  0.16510000  0.10330000  1.0
  H  H147  1  0.36170000  0.38730000  0.65530000  1.0
  H  H148  1  0.33630000  0.22520000  0.73620000  1.0
  H  H149  1  0.52530000  0.66220000  0.45470000  1.0
  H  H150  1  0.22310000  0.31060000  0.83880000  1.0
  H  H151  1  0.27160000  0.43170000  0.34340000  1.0
  H  H152  1  0.22250000  0.42070000  0.24510000  1.0
  H  H153  1  0.38570000  0.20770000  0.83380000  1.0
  H  H154  1  0.62240000  0.73310000  0.50480000  1.0
  H  H155  1  0.59810000  0.04710000  0.99910000  1.0
  H  H156  1  0.40410000  0.58790000  0.33110000  1.0
  H  H157  1  0.38410000  0.29690000  0.11320000  1.0
  H  H158  1  0.34960000  0.57520000  0.23340000  1.0
  H  H159  1  0.33410000  0.37040000  0.16010000  1.0
  H  H160  1  0.90380000  0.59440000  0.35270000  1.0
  H  H161  1  0.08560000  0.96020000  0.89000000  1.0
  H  H162  1  0.88510000  0.18940000  0.84920000  1.0
  H  H163  1  0.00070000  0.61580000  0.54950000  1.0
  H  H164  1  0.26420000  0.86680000  0.53690000  1.0
  H  H165  1  0.24610000  0.91830000  0.03970000  1.0
  H  H166  1  0.98100000  0.11490000  0.89420000  1.0
  H  H167  1  0.31210000  0.93490000  0.48590000  1.0
  H  H168  1  0.29450000  0.85130000  0.98980000  1.0
  H  H169  1  0.32160000  0.82570000  0.75970000  1.0
  H  H170  1  0.00150000  0.66510000  0.39670000  1.0
  H  H171  1  0.13830000  0.88730000  0.84470000  1.0
  H  H172  1  0.16370000  0.72520000  0.76380000  1.0
  H  H173  1  0.97470000  0.16220000  0.04530000  1.0
  H  H174  1  0.27690000  0.81060000  0.66120000  1.0
  H  H175  1  0.22840000  0.93170000  0.15660000  1.0
  H  H176  1  0.27750000  0.92070000  0.25490000  1.0
  H  H177  1  0.11430000  0.70770000  0.66620000  1.0
  H  H178  1  0.87760000  0.23310000  0.99520000  1.0
  H  H179  1  0.90190000  0.54710000  0.50090000  1.0
  H  H180  1  0.09590000  0.08790000  0.16890000  1.0
  H  H181  1  0.11590000  0.79690000  0.38680000  1.0
  H  H182  1  0.15040000  0.07520000  0.26660000  1.0
  H  H183  1  0.16590000  0.87040000  0.33990000  1.0
  H  H184  1  0.40380000  0.09440000  0.35270000  1.0
  H  H185  1  0.58560000  0.46020000  0.89000000  1.0
  H  H186  1  0.38510000  0.68940000  0.84920000  1.0
  H  H187  1  0.50070000  0.11580000  0.54950000  1.0
  H  H188  1  0.76420000  0.36680000  0.53690000  1.0
  H  H189  1  0.74610000  0.41830000  0.03970000  1.0
  H  H190  1  0.48100000  0.61490000  0.89420000  1.0
  H  H191  1  0.81210000  0.43490000  0.48590000  1.0
  H  H192  1  0.79450000  0.35130000  0.98980000  1.0
  H  H193  1  0.82160000  0.32570000  0.75970000  1.0
  H  H194  1  0.50150000  0.16510000  0.39670000  1.0
  H  H195  1  0.63830000  0.38730000  0.84470000  1.0
  H  H196  1  0.66370000  0.22520000  0.76380000  1.0
  H  H197  1  0.47470000  0.66220000  0.04530000  1.0
  H  H198  1  0.77690000  0.31060000  0.66120000  1.0
  H  H199  1  0.72840000  0.43170000  0.15660000  1.0
  H  H200  1  0.77750000  0.42070000  0.25490000  1.0
  H  H201  1  0.61430000  0.20770000  0.66620000  1.0
  H  H202  1  0.37760000  0.73310000  0.99520000  1.0
  H  H203  1  0.40190000  0.04710000  0.50090000  1.0
  H  H204  1  0.59590000  0.58790000  0.16890000  1.0
  H  H205  1  0.61590000  0.29690000  0.38680000  1.0
  H  H206  1  0.65040000  0.57520000  0.26660000  1.0
  H  H207  1  0.66590000  0.37040000  0.33990000  1.0
  C  C208  1  0.92314000  0.40050000  0.89264000  1.0
  C  C209  1  0.12800000  0.06180000  0.41127000  1.0
  C  C210  1  0.15399000  0.21930000  0.00136000  1.0
  C  C211  1  0.12825000  0.00720000  0.50256000  1.0
  C  C212  1  0.90320000  0.81670000  0.38908000  1.0
  C  C213  1  0.98160000  0.38720000  0.00948000  1.0
  C  C214  1  0.07521000  0.30080000  0.00726000  1.0
  C  C215  1  0.15995000  0.05260000  0.47042000  1.0
  C  C216  1  0.24355000  0.13350000  0.99678000  1.0
  C  C217  1  0.22330000  0.08630000  0.49984000  1.0
  C  C218  1  0.15821000  0.98670000  0.65163000  1.0
  C  C219  1  0.96090000  0.86160000  0.41588000  1.0
  C  C220  1  0.12806000  0.97630000  0.58826000  1.0
  C  C221  1  0.27190000  0.09260000  0.96567000  1.0
  C  C222  1  0.25200000  0.12640000  0.46950000  1.0
  C  C223  1  0.05010000  0.92270000  0.50587000  1.0
  C  C224  1  0.27960000  0.19830000  0.24060000  1.0
  C  C225  1  0.18403000  0.17490000  0.96727000  1.0
  C  C226  1  0.19040000  0.24260000  0.15193000  1.0
  C  C227  1  0.98206000  0.35820000  0.91884000  1.0
  C  C228  1  0.15897000  0.25250000  0.08851000  1.0
  C  C229  1  0.16070000  0.10480000  0.38433000  1.0
  C  C230  1  0.18670000  0.25730000  0.24280000  1.0
  C  C231  1  0.95710000  0.83390000  0.50536000  1.0
  C  C232  1  0.25290000  0.20720000  0.18124000  1.0
  C  C233  1  0.21210000  0.03790000  0.67840000  1.0
  C  C234  1  0.01259000  0.35010000  0.97803000  1.0
  C  C235  1  0.24170000  0.04370000  0.73760000  1.0
  C  C236  1  0.15650000  0.26830000  0.18410000  1.0
  C  C237  1  0.89900000  0.79070000  0.47471000  1.0
  C  C238  1  0.92210000  0.42840000  0.97970000  1.0
  C  C239  1  0.13370000  0.94500000  0.68550000  1.0
  C  C240  1  0.98914000  0.87200000  0.47483000  1.0
  C  C241  1  0.15530000  0.17460000  0.90776000  1.0
  C  C242  1  0.16680000  0.95350000  0.74420000  1.0
  C  C243  1  0.18640000  0.13100000  0.87999000  1.0
  C  C244  1  0.42314000  0.90050000  0.89264000  1.0
  C  C245  1  0.62800000  0.56180000  0.41127000  1.0
  C  C246  1  0.65399000  0.71930000  0.00136000  1.0
  C  C247  1  0.62825000  0.50720000  0.50256000  1.0
  C  C248  1  0.40320000  0.31670000  0.38908000  1.0
  C  C249  1  0.48160000  0.88720000  0.00948000  1.0
  C  C250  1  0.57521000  0.80080000  0.00726000  1.0
  C  C251  1  0.65995000  0.55260000  0.47042000  1.0
  C  C252  1  0.74355000  0.63350000  0.99678000  1.0
  C  C253  1  0.72330000  0.58630000  0.49984000  1.0
  C  C254  1  0.65821000  0.48670000  0.65163000  1.0
  C  C255  1  0.46090000  0.36160000  0.41588000  1.0
  C  C256  1  0.62806000  0.47630000  0.58826000  1.0
  C  C257  1  0.77190000  0.59260000  0.96567000  1.0
  C  C258  1  0.75200000  0.62640000  0.46950000  1.0
  C  C259  1  0.55010000  0.42270000  0.50587000  1.0
  C  C260  1  0.77960000  0.69830000  0.24060000  1.0
  C  C261  1  0.68403000  0.67490000  0.96727000  1.0
  C  C262  1  0.69040000  0.74260000  0.15193000  1.0
  C  C263  1  0.48206000  0.85820000  0.91884000  1.0
  C  C264  1  0.65897000  0.75250000  0.08851000  1.0
  C  C265  1  0.66070000  0.60480000  0.38433000  1.0
  C  C266  1  0.68670000  0.75730000  0.24280000  1.0
  C  C267  1  0.45710000  0.33390000  0.50536000  1.0
  C  C268  1  0.75290000  0.70720000  0.18124000  1.0
  C  C269  1  0.71210000  0.53790000  0.67840000  1.0
  C  C270  1  0.51259000  0.85010000  0.97803000  1.0
  C  C271  1  0.74170000  0.54370000  0.73760000  1.0
  C  C272  1  0.65650000  0.76830000  0.18410000  1.0
  C  C273  1  0.39900000  0.29070000  0.47471000  1.0
  C  C274  1  0.42210000  0.92840000  0.97970000  1.0
  C  C275  1  0.63370000  0.44500000  0.68550000  1.0
  C  C276  1  0.48914000  0.37200000  0.47483000  1.0
  C  C277  1  0.65530000  0.67460000  0.90776000  1.0
  C  C278  1  0.66680000  0.45350000  0.74420000  1.0
  C  C279  1  0.68640000  0.63100000  0.87999000  1.0
  C  C280  1  0.07686000  0.40050000  0.60736000  1.0
  C  C281  1  0.87200000  0.06180000  0.08873000  1.0
  C  C282  1  0.84601000  0.21930000  0.49864000  1.0
  C  C283  1  0.87175000  0.00720000  0.99744000  1.0
  C  C284  1  0.09680000  0.81670000  0.11092000  1.0
  C  C285  1  0.01840000  0.38720000  0.49052000  1.0
  C  C286  1  0.92479000  0.30080000  0.49274000  1.0
  C  C287  1  0.84005000  0.05260000  0.02958000  1.0
  C  C288  1  0.75645000  0.13350000  0.50322000  1.0
  C  C289  1  0.77670000  0.08630000  0.00016000  1.0
  C  C290  1  0.84179000  0.98670000  0.84837000  1.0
  C  C291  1  0.03910000  0.86160000  0.08412000  1.0
  C  C292  1  0.87194000  0.97630000  0.91174000  1.0
  C  C293  1  0.72810000  0.09260000  0.53433000  1.0
  C  C294  1  0.74800000  0.12640000  0.03050000  1.0
  C  C295  1  0.94990000  0.92270000  0.99413000  1.0
  C  C296  1  0.72040000  0.19830000  0.25940000  1.0
  C  C297  1  0.81597000  0.17490000  0.53273000  1.0
  C  C298  1  0.80960000  0.24260000  0.34807000  1.0
  C  C299  1  0.01794000  0.35820000  0.58116000  1.0
  C  C300  1  0.84103000  0.25250000  0.41149000  1.0
  C  C301  1  0.83930000  0.10480000  0.11567000  1.0
  C  C302  1  0.81330000  0.25730000  0.25720000  1.0
  C  C303  1  0.04290000  0.83390000  0.99464000  1.0
  C  C304  1  0.74710000  0.20720000  0.31876000  1.0
  C  C305  1  0.78790000  0.03790000  0.82160000  1.0
  C  C306  1  0.98741000  0.35010000  0.52197000  1.0
  C  C307  1  0.75830000  0.04370000  0.76240000  1.0
  C  C308  1  0.84350000  0.26830000  0.31590000  1.0
  C  C309  1  0.10100000  0.79070000  0.02529000  1.0
  C  C310  1  0.07790000  0.42840000  0.52030000  1.0
  C  C311  1  0.86630000  0.94500000  0.81450000  1.0
  C  C312  1  0.01086000  0.87200000  0.02517000  1.0
  C  C313  1  0.84470000  0.17460000  0.59224000  1.0
  C  C314  1  0.83320000  0.95350000  0.75580000  1.0
  C  C315  1  0.81360000  0.13100000  0.62001000  1.0
  C  C316  1  0.57686000  0.90050000  0.60736000  1.0
  C  C317  1  0.37200000  0.56180000  0.08873000  1.0
  C  C318  1  0.34601000  0.71930000  0.49864000  1.0
  C  C319  1  0.37175000  0.50720000  0.99744000  1.0
  C  C320  1  0.59680000  0.31670000  0.11092000  1.0
  C  C321  1  0.51840000  0.88720000  0.49052000  1.0
  C  C322  1  0.42479000  0.80080000  0.49274000  1.0
  C  C323  1  0.34005000  0.55260000  0.02958000  1.0
  C  C324  1  0.25645000  0.63350000  0.50322000  1.0
  C  C325  1  0.27670000  0.58630000  0.00016000  1.0
  C  C326  1  0.34179000  0.48670000  0.84837000  1.0
  C  C327  1  0.53910000  0.36160000  0.08412000  1.0
  C  C328  1  0.37194000  0.47630000  0.91174000  1.0
  C  C329  1  0.22810000  0.59260000  0.53433000  1.0
  C  C330  1  0.24800000  0.62640000  0.03050000  1.0
  C  C331  1  0.44990000  0.42270000  0.99413000  1.0
  C  C332  1  0.22040000  0.69830000  0.25940000  1.0
  C  C333  1  0.31597000  0.67490000  0.53273000  1.0
  C  C334  1  0.30960000  0.74260000  0.34807000  1.0
  C  C335  1  0.51794000  0.85820000  0.58116000  1.0
  C  C336  1  0.34103000  0.75250000  0.41149000  1.0
  C  C337  1  0.33930000  0.60480000  0.11567000  1.0
  C  C338  1  0.31330000  0.75730000  0.25720000  1.0
  C  C339  1  0.54290000  0.33390000  0.99464000  1.0
  C  C340  1  0.24710000  0.70720000  0.31876000  1.0
  C  C341  1  0.28790000  0.53790000  0.82160000  1.0
  C  C342  1  0.48741000  0.85010000  0.52197000  1.0
  C  C343  1  0.25830000  0.54370000  0.76240000  1.0
  C  C344  1  0.34350000  0.76830000  0.31590000  1.0
  C  C345  1  0.60100000  0.29070000  0.02529000  1.0
  C  C346  1  0.57790000  0.92840000  0.52030000  1.0
  C  C347  1  0.36630000  0.44500000  0.81450000  1.0
  C  C348  1  0.51086000  0.37200000  0.02517000  1.0
  C  C349  1  0.34470000  0.67460000  0.59224000  1.0
  C  C350  1  0.33320000  0.45350000  0.75580000  1.0
  C  C351  1  0.31360000  0.63100000  0.62001000  1.0
  C  C352  1  0.07686000  0.59950000  0.10736000  1.0
  C  C353  1  0.87200000  0.93820000  0.58873000  1.0
  C  C354  1  0.84601000  0.78070000  0.99864000  1.0
  C  C355  1  0.87175000  0.99280000  0.49744000  1.0
  C  C356  1  0.09680000  0.18330000  0.61092000  1.0
  C  C357  1  0.01840000  0.61280000  0.99052000  1.0
  C  C358  1  0.92479000  0.69920000  0.99274000  1.0
  C  C359  1  0.84005000  0.94740000  0.52958000  1.0
  C  C360  1  0.75645000  0.86650000  0.00322000  1.0
  C  C361  1  0.77670000  0.91370000  0.50016000  1.0
  C  C362  1  0.84179000  0.01330000  0.34837000  1.0
  C  C363  1  0.03910000  0.13840000  0.58412000  1.0
  C  C364  1  0.87194000  0.02370000  0.41174000  1.0
  C  C365  1  0.72810000  0.90740000  0.03433000  1.0
  C  C366  1  0.74800000  0.87360000  0.53050000  1.0
  C  C367  1  0.94990000  0.07730000  0.49413000  1.0
  C  C368  1  0.72040000  0.80170000  0.75940000  1.0
  C  C369  1  0.81597000  0.82510000  0.03273000  1.0
  C  C370  1  0.80960000  0.75740000  0.84807000  1.0
  C  C371  1  0.01794000  0.64180000  0.08116000  1.0
  C  C372  1  0.84103000  0.74750000  0.91149000  1.0
  C  C373  1  0.83930000  0.89520000  0.61567000  1.0
  C  C374  1  0.81330000  0.74270000  0.75720000  1.0
  C  C375  1  0.04290000  0.16610000  0.49464000  1.0
  C  C376  1  0.74710000  0.79280000  0.81876000  1.0
  C  C377  1  0.78790000  0.96210000  0.32160000  1.0
  C  C378  1  0.98741000  0.64990000  0.02197000  1.0
  C  C379  1  0.75830000  0.95630000  0.26240000  1.0
  C  C380  1  0.84350000  0.73170000  0.81590000  1.0
  C  C381  1  0.10100000  0.20930000  0.52529000  1.0
  C  C382  1  0.07790000  0.57160000  0.02030000  1.0
  C  C383  1  0.86630000  0.05500000  0.31450000  1.0
  C  C384  1  0.01086000  0.12800000  0.52517000  1.0
  C  C385  1  0.84470000  0.82540000  0.09224000  1.0
  C  C386  1  0.83320000  0.04650000  0.25580000  1.0
  C  C387  1  0.81360000  0.86900000  0.12001000  1.0
  C  C388  1  0.57686000  0.09950000  0.10736000  1.0
  C  C389  1  0.37200000  0.43820000  0.58873000  1.0
  C  C390  1  0.34601000  0.28070000  0.99864000  1.0
  C  C391  1  0.37175000  0.49280000  0.49744000  1.0
  C  C392  1  0.59680000  0.68330000  0.61092000  1.0
  C  C393  1  0.51840000  0.11280000  0.99052000  1.0
  C  C394  1  0.42479000  0.19920000  0.99274000  1.0
  C  C395  1  0.34005000  0.44740000  0.52958000  1.0
  C  C396  1  0.25645000  0.36650000  0.00322000  1.0
  C  C397  1  0.27670000  0.41370000  0.50016000  1.0
  C  C398  1  0.34179000  0.51330000  0.34837000  1.0
  C  C399  1  0.53910000  0.63840000  0.58412000  1.0
  C  C400  1  0.37194000  0.52370000  0.41174000  1.0
  C  C401  1  0.22810000  0.40740000  0.03433000  1.0
  C  C402  1  0.24800000  0.37360000  0.53050000  1.0
  C  C403  1  0.44990000  0.57730000  0.49413000  1.0
  C  C404  1  0.22040000  0.30170000  0.75940000  1.0
  C  C405  1  0.31597000  0.32510000  0.03273000  1.0
  C  C406  1  0.30960000  0.25740000  0.84807000  1.0
  C  C407  1  0.51794000  0.14180000  0.08116000  1.0
  C  C408  1  0.34103000  0.24750000  0.91149000  1.0
  C  C409  1  0.33930000  0.39520000  0.61567000  1.0
  C  C410  1  0.31330000  0.24270000  0.75720000  1.0
  C  C411  1  0.54290000  0.66610000  0.49464000  1.0
  C  C412  1  0.24710000  0.29280000  0.81876000  1.0
  C  C413  1  0.28790000  0.46210000  0.32160000  1.0
  C  C414  1  0.48741000  0.14990000  0.02197000  1.0
  C  C415  1  0.25830000  0.45630000  0.26240000  1.0
  C  C416  1  0.34350000  0.23170000  0.81590000  1.0
  C  C417  1  0.60100000  0.70930000  0.52529000  1.0
  C  C418  1  0.57790000  0.07160000  0.02030000  1.0
  C  C419  1  0.36630000  0.55500000  0.31450000  1.0
  C  C420  1  0.51086000  0.62800000  0.52517000  1.0
  C  C421  1  0.34470000  0.32540000  0.09224000  1.0
  C  C422  1  0.33320000  0.54650000  0.25580000  1.0
  C  C423  1  0.31360000  0.36900000  0.12001000  1.0
  C  C424  1  0.92314000  0.59950000  0.39264000  1.0
  C  C425  1  0.12800000  0.93820000  0.91127000  1.0
  C  C426  1  0.15399000  0.78070000  0.50136000  1.0
  C  C427  1  0.12825000  0.99280000  0.00256000  1.0
  C  C428  1  0.90320000  0.18330000  0.88908000  1.0
  C  C429  1  0.98160000  0.61280000  0.50948000  1.0
  C  C430  1  0.07521000  0.69920000  0.50726000  1.0
  C  C431  1  0.15995000  0.94740000  0.97042000  1.0
  C  C432  1  0.24355000  0.86650000  0.49678000  1.0
  C  C433  1  0.22330000  0.91370000  0.99984000  1.0
  C  C434  1  0.15821000  0.01330000  0.15163000  1.0
  C  C435  1  0.96090000  0.13840000  0.91588000  1.0
  C  C436  1  0.12806000  0.02370000  0.08826000  1.0
  C  C437  1  0.27190000  0.90740000  0.46567000  1.0
  C  C438  1  0.25200000  0.87360000  0.96950000  1.0
  C  C439  1  0.05010000  0.07730000  0.00587000  1.0
  C  C440  1  0.27960000  0.80170000  0.74060000  1.0
  C  C441  1  0.18403000  0.82510000  0.46727000  1.0
  C  C442  1  0.19040000  0.75740000  0.65193000  1.0
  C  C443  1  0.98206000  0.64180000  0.41884000  1.0
  C  C444  1  0.15897000  0.74750000  0.58851000  1.0
  C  C445  1  0.16070000  0.89520000  0.88433000  1.0
  C  C446  1  0.18670000  0.74270000  0.74280000  1.0
  C  C447  1  0.95710000  0.16610000  0.00536000  1.0
  C  C448  1  0.25290000  0.79280000  0.68124000  1.0
  C  C449  1  0.21210000  0.96210000  0.17840000  1.0
  C  C450  1  0.01259000  0.64990000  0.47803000  1.0
  C  C451  1  0.24170000  0.95630000  0.23760000  1.0
  C  C452  1  0.15650000  0.73170000  0.68410000  1.0
  C  C453  1  0.89900000  0.20930000  0.97471000  1.0
  C  C454  1  0.92210000  0.57160000  0.47970000  1.0
  C  C455  1  0.13370000  0.05500000  0.18550000  1.0
  C  C456  1  0.98914000  0.12800000  0.97483000  1.0
  C  C457  1  0.15530000  0.82540000  0.40776000  1.0
  C  C458  1  0.16680000  0.04650000  0.24420000  1.0
  C  C459  1  0.18640000  0.86900000  0.37999000  1.0
  C  C460  1  0.42314000  0.09950000  0.39264000  1.0
  C  C461  1  0.62800000  0.43820000  0.91127000  1.0
  C  C462  1  0.65399000  0.28070000  0.50136000  1.0
  C  C463  1  0.62825000  0.49280000  0.00256000  1.0
  C  C464  1  0.40320000  0.68330000  0.88908000  1.0
  C  C465  1  0.48160000  0.11280000  0.50948000  1.0
  C  C466  1  0.57521000  0.19920000  0.50726000  1.0
  C  C467  1  0.65995000  0.44740000  0.97042000  1.0
  C  C468  1  0.74355000  0.36650000  0.49678000  1.0
  C  C469  1  0.72330000  0.41370000  0.99984000  1.0
  C  C470  1  0.65821000  0.51330000  0.15163000  1.0
  C  C471  1  0.46090000  0.63840000  0.91588000  1.0
  C  C472  1  0.62806000  0.52370000  0.08826000  1.0
  C  C473  1  0.77190000  0.40740000  0.46567000  1.0
  C  C474  1  0.75200000  0.37360000  0.96950000  1.0
  C  C475  1  0.55010000  0.57730000  0.00587000  1.0
  C  C476  1  0.77960000  0.30170000  0.74060000  1.0
  C  C477  1  0.68403000  0.32510000  0.46727000  1.0
  C  C478  1  0.69040000  0.25740000  0.65193000  1.0
  C  C479  1  0.48206000  0.14180000  0.41884000  1.0
  C  C480  1  0.65897000  0.24750000  0.58851000  1.0
  C  C481  1  0.66070000  0.39520000  0.88433000  1.0
  C  C482  1  0.68670000  0.24270000  0.74280000  1.0
  C  C483  1  0.45710000  0.66610000  0.00536000  1.0
  C  C484  1  0.75290000  0.29280000  0.68124000  1.0
  C  C485  1  0.71210000  0.46210000  0.17840000  1.0
  C  C486  1  0.51259000  0.14990000  0.47803000  1.0
  C  C487  1  0.74170000  0.45630000  0.23760000  1.0
  C  C488  1  0.65650000  0.23170000  0.68410000  1.0
  C  C489  1  0.39900000  0.70930000  0.97471000  1.0
  C  C490  1  0.42210000  0.07160000  0.47970000  1.0
  C  C491  1  0.63370000  0.55500000  0.18550000  1.0
  C  C492  1  0.48914000  0.62800000  0.97483000  1.0
  C  C493  1  0.65530000  0.32540000  0.40776000  1.0
  C  C494  1  0.66680000  0.54650000  0.24420000  1.0
  C  C495  1  0.68640000  0.36900000  0.37999000  1.0
  N  N496  1  0.87141000  0.78090000  0.41769000  1.0
  N  N497  1  0.22223000  0.13540000  0.41198000  1.0
  N  N498  1  0.22110000  0.00020000  0.77175000  1.0
  N  N499  1  0.07457000  0.96080000  0.47277000  1.0
  N  N500  1  0.15590000  0.01840000  0.55942000  1.0
  N  N501  1  0.07492000  0.92760000  0.56312000  1.0
  N  N502  1  0.24452000  0.09050000  0.90771000  1.0
  N  N503  1  0.24695000  0.22320000  0.27181000  1.0
  N  N504  1  0.89169000  0.43540000  0.92207000  1.0
  N  N505  1  0.09757000  0.26050000  0.97338000  1.0
  N  N506  1  0.18686000  0.21270000  0.05897000  1.0
  N  N507  1  0.10392000  0.29900000  0.06458000  1.0
  N  N508  1  0.37141000  0.28090000  0.41769000  1.0
  N  N509  1  0.72223000  0.63540000  0.41198000  1.0
  N  N510  1  0.72110000  0.50020000  0.77175000  1.0
  N  N511  1  0.57457000  0.46080000  0.47277000  1.0
  N  N512  1  0.65590000  0.51840000  0.55942000  1.0
  N  N513  1  0.57492000  0.42760000  0.56312000  1.0
  N  N514  1  0.74452000  0.59050000  0.90771000  1.0
  N  N515  1  0.74695000  0.72320000  0.27181000  1.0
  N  N516  1  0.39169000  0.93540000  0.92207000  1.0
  N  N517  1  0.59757000  0.76050000  0.97338000  1.0
  N  N518  1  0.68686000  0.71270000  0.05897000  1.0
  N  N519  1  0.60392000  0.79900000  0.06458000  1.0
  N  N520  1  0.12859000  0.78090000  0.08231000  1.0
  N  N521  1  0.77777000  0.13540000  0.08802000  1.0
  N  N522  1  0.77890000  0.00020000  0.72825000  1.0
  N  N523  1  0.92543000  0.96080000  0.02723000  1.0
  N  N524  1  0.84410000  0.01840000  0.94058000  1.0
  N  N525  1  0.92508000  0.92760000  0.93688000  1.0
  N  N526  1  0.75548000  0.09050000  0.59229000  1.0
  N  N527  1  0.75305000  0.22320000  0.22819000  1.0
  N  N528  1  0.10831000  0.43540000  0.57793000  1.0
  N  N529  1  0.90243000  0.26050000  0.52662000  1.0
  N  N530  1  0.81314000  0.21270000  0.44103000  1.0
  N  N531  1  0.89608000  0.29900000  0.43542000  1.0
  N  N532  1  0.62859000  0.28090000  0.08231000  1.0
  N  N533  1  0.27777000  0.63540000  0.08802000  1.0
  N  N534  1  0.27890000  0.50020000  0.72825000  1.0
  N  N535  1  0.42543000  0.46080000  0.02723000  1.0
  N  N536  1  0.34410000  0.51840000  0.94058000  1.0
  N  N537  1  0.42508000  0.42760000  0.93688000  1.0
  N  N538  1  0.25548000  0.59050000  0.59229000  1.0
  N  N539  1  0.25305000  0.72320000  0.22819000  1.0
  N  N540  1  0.60831000  0.93540000  0.57793000  1.0
  N  N541  1  0.40243000  0.76050000  0.52662000  1.0
  N  N542  1  0.31314000  0.71270000  0.44103000  1.0
  N  N543  1  0.39608000  0.79900000  0.43542000  1.0
  N  N544  1  0.12859000  0.21910000  0.58231000  1.0
  N  N545  1  0.77777000  0.86460000  0.58802000  1.0
  N  N546  1  0.77890000  0.99980000  0.22825000  1.0
  N  N547  1  0.92543000  0.03920000  0.52723000  1.0
  N  N548  1  0.84410000  0.98160000  0.44058000  1.0
  N  N549  1  0.92508000  0.07240000  0.43688000  1.0
  N  N550  1  0.75548000  0.90950000  0.09229000  1.0
  N  N551  1  0.75305000  0.77680000  0.72819000  1.0
  N  N552  1  0.10831000  0.56460000  0.07793000  1.0
  N  N553  1  0.90243000  0.73950000  0.02662000  1.0
  N  N554  1  0.81314000  0.78730000  0.94103000  1.0
  N  N555  1  0.89608000  0.70100000  0.93542000  1.0
  N  N556  1  0.62859000  0.71910000  0.58231000  1.0
  N  N557  1  0.27777000  0.36460000  0.58802000  1.0
  N  N558  1  0.27890000  0.49980000  0.22825000  1.0
  N  N559  1  0.42543000  0.53920000  0.52723000  1.0
  N  N560  1  0.34410000  0.48160000  0.44058000  1.0
  N  N561  1  0.42508000  0.57240000  0.43688000  1.0
  N  N562  1  0.25548000  0.40950000  0.09229000  1.0
  N  N563  1  0.25305000  0.27680000  0.72819000  1.0
  N  N564  1  0.60831000  0.06460000  0.07793000  1.0
  N  N565  1  0.40243000  0.23950000  0.02662000  1.0
  N  N566  1  0.31314000  0.28730000  0.94103000  1.0
  N  N567  1  0.39608000  0.20100000  0.93542000  1.0
  N  N568  1  0.87141000  0.21910000  0.91769000  1.0
  N  N569  1  0.22223000  0.86460000  0.91198000  1.0
  N  N570  1  0.22110000  0.99980000  0.27175000  1.0
  N  N571  1  0.07457000  0.03920000  0.97277000  1.0
  N  N572  1  0.15590000  0.98160000  0.05942000  1.0
  N  N573  1  0.07492000  0.07240000  0.06312000  1.0
  N  N574  1  0.24452000  0.90950000  0.40771000  1.0
  N  N575  1  0.24695000  0.77680000  0.77181000  1.0
  N  N576  1  0.89169000  0.56460000  0.42207000  1.0
  N  N577  1  0.09757000  0.73950000  0.47338000  1.0
  N  N578  1  0.18686000  0.78730000  0.55897000  1.0
  N  N579  1  0.10392000  0.70100000  0.56458000  1.0
  N  N580  1  0.37141000  0.71910000  0.91769000  1.0
  N  N581  1  0.72223000  0.36460000  0.91198000  1.0
  N  N582  1  0.72110000  0.49980000  0.27175000  1.0
  N  N583  1  0.57457000  0.53920000  0.97277000  1.0
  N  N584  1  0.65590000  0.48160000  0.05942000  1.0
  N  N585  1  0.57492000  0.57240000  0.06312000  1.0
  N  N586  1  0.74452000  0.40950000  0.40771000  1.0
  N  N587  1  0.74695000  0.27680000  0.77181000  1.0
  N  N588  1  0.39169000  0.06460000  0.42207000  1.0
  N  N589  1  0.59757000  0.23950000  0.47338000  1.0
  N  N590  1  0.68686000  0.28730000  0.55897000  1.0
  N  N591  1  0.60392000  0.20100000  0.56458000  1.0
