# generated using pymatgen
data_AgH12(C3N)6
_symmetry_space_group_name_H-M   'P 1'
_cell_length_a   22.02480000
_cell_length_b   16.49330000
_cell_length_c   25.67660000
_cell_angle_alpha   90.00000000
_cell_angle_beta   115.38500000
_cell_angle_gamma   90.00000000
_symmetry_Int_Tables_number   1
_chemical_formula_structural   AgH12(C3N)6
_chemical_formula_sum   'Ag16 H192 C288 N96'
_cell_volume   8426.74777941
_cell_formula_units_Z   16
loop_
 _symmetry_equiv_pos_site_id
 _symmetry_equiv_pos_as_xyz
  1  'x, y, z'
loop_
 _atom_site_type_symbol
 _atom_site_label
 _atom_site_symmetry_multiplicity
 _atom_site_fract_x
 _atom_site_fract_y
 _atom_site_fract_z
 _atom_site_occupancy
  Ag  Ag0  1  0.27396000  0.70871000  0.86825000  1.0
  Ag  Ag1  1  0.79472000  0.00057000  0.36770000  1.0
  Ag  Ag2  1  0.77396000  0.20871000  0.86825000  1.0
  Ag  Ag3  1  0.29472000  0.50057000  0.36770000  1.0
  Ag  Ag4  1  0.72604000  0.70871000  0.63175000  1.0
  Ag  Ag5  1  0.20528000  0.00057000  0.13230000  1.0
  Ag  Ag6  1  0.22604000  0.20871000  0.63175000  1.0
  Ag  Ag7  1  0.70528000  0.50057000  0.13230000  1.0
  Ag  Ag8  1  0.72604000  0.29129000  0.13175000  1.0
  Ag  Ag9  1  0.20528000  0.99943000  0.63230000  1.0
  Ag  Ag10  1  0.22604000  0.79129000  0.13175000  1.0
  Ag  Ag11  1  0.70528000  0.49943000  0.63230000  1.0
  Ag  Ag12  1  0.27396000  0.29129000  0.36825000  1.0
  Ag  Ag13  1  0.79472000  0.99943000  0.86770000  1.0
  Ag  Ag14  1  0.77396000  0.79129000  0.36825000  1.0
  Ag  Ag15  1  0.29472000  0.49943000  0.86770000  1.0
  H  H16  1  0.58530000  0.04080000  0.89000000  1.0
  H  H17  1  0.40300000  0.40430000  0.35270000  1.0
  H  H18  1  0.50110000  0.38390000  0.54970000  1.0
  H  H19  1  0.38510000  0.81050000  0.84940000  1.0
  H  H20  1  0.76410000  0.13270000  0.53670000  1.0
  H  H21  1  0.74590000  0.08250000  0.04000000  1.0
  H  H22  1  0.81230000  0.06480000  0.48570000  1.0
  H  H23  1  0.48130000  0.88420000  0.89430000  1.0
  H  H24  1  0.79440000  0.14940000  0.98970000  1.0
  H  H25  1  0.47460000  0.83810000  0.04540000  1.0
  H  H26  1  0.82190000  0.17460000  0.75980000  1.0
  H  H27  1  0.72850000  0.06890000  0.15670000  1.0
  H  H28  1  0.50200000  0.33480000  0.39700000  1.0
  H  H29  1  0.63890000  0.11210000  0.84510000  1.0
  H  H30  1  0.77750000  0.18980000  0.66170000  1.0
  H  H31  1  0.61440000  0.29210000  0.66610000  1.0
  H  H32  1  0.66370000  0.27420000  0.76410000  1.0
  H  H33  1  0.77750000  0.07950000  0.25510000  1.0
  H  H34  1  0.37760000  0.76660000  0.99540000  1.0
  H  H35  1  0.61620000  0.20310000  0.38680000  1.0
  H  H36  1  0.59570000  0.91170000  0.16880000  1.0
  H  H37  1  0.40190000  0.45280000  0.50110000  1.0
  H  H38  1  0.65110000  0.92420000  0.26690000  1.0
  H  H39  1  0.66650000  0.12990000  0.34000000  1.0
  H  H40  1  0.08530000  0.54080000  0.89000000  1.0
  H  H41  1  0.90300000  0.90430000  0.35270000  1.0
  H  H42  1  0.00110000  0.88390000  0.54970000  1.0
  H  H43  1  0.88510000  0.31050000  0.84940000  1.0
  H  H44  1  0.26410000  0.63270000  0.53670000  1.0
  H  H45  1  0.24590000  0.58250000  0.04000000  1.0
  H  H46  1  0.31230000  0.56480000  0.48570000  1.0
  H  H47  1  0.98130000  0.38420000  0.89430000  1.0
  H  H48  1  0.29440000  0.64940000  0.98970000  1.0
  H  H49  1  0.97460000  0.33810000  0.04540000  1.0
  H  H50  1  0.32190000  0.67460000  0.75980000  1.0
  H  H51  1  0.22850000  0.56890000  0.15670000  1.0
  H  H52  1  0.00200000  0.83480000  0.39700000  1.0
  H  H53  1  0.13890000  0.61210000  0.84510000  1.0
  H  H54  1  0.27750000  0.68980000  0.66170000  1.0
  H  H55  1  0.11440000  0.79210000  0.66610000  1.0
  H  H56  1  0.16370000  0.77420000  0.76410000  1.0
  H  H57  1  0.27750000  0.57950000  0.25510000  1.0
  H  H58  1  0.87760000  0.26660000  0.99540000  1.0
  H  H59  1  0.11620000  0.70310000  0.38680000  1.0
  H  H60  1  0.09570000  0.41170000  0.16880000  1.0
  H  H61  1  0.90190000  0.95280000  0.50110000  1.0
  H  H62  1  0.15110000  0.42420000  0.26690000  1.0
  H  H63  1  0.16650000  0.62990000  0.34000000  1.0
  H  H64  1  0.41470000  0.04080000  0.61000000  1.0
  H  H65  1  0.59700000  0.40430000  0.14730000  1.0
  H  H66  1  0.49890000  0.38390000  0.95030000  1.0
  H  H67  1  0.61490000  0.81050000  0.65060000  1.0
  H  H68  1  0.23590000  0.13270000  0.96330000  1.0
  H  H69  1  0.25410000  0.08250000  0.46000000  1.0
  H  H70  1  0.18770000  0.06480000  0.01430000  1.0
  H  H71  1  0.51870000  0.88420000  0.60570000  1.0
  H  H72  1  0.20560000  0.14940000  0.51030000  1.0
  H  H73  1  0.52540000  0.83810000  0.45460000  1.0
  H  H74  1  0.17810000  0.17460000  0.74020000  1.0
  H  H75  1  0.27150000  0.06890000  0.34330000  1.0
  H  H76  1  0.49800000  0.33480000  0.10300000  1.0
  H  H77  1  0.36110000  0.11210000  0.65490000  1.0
  H  H78  1  0.22250000  0.18980000  0.83830000  1.0
  H  H79  1  0.38560000  0.29210000  0.83390000  1.0
  H  H80  1  0.33630000  0.27420000  0.73590000  1.0
  H  H81  1  0.22250000  0.07950000  0.24490000  1.0
  H  H82  1  0.62240000  0.76660000  0.50460000  1.0
  H  H83  1  0.38380000  0.20310000  0.11320000  1.0
  H  H84  1  0.40430000  0.91170000  0.33120000  1.0
  H  H85  1  0.59810000  0.45280000  0.99890000  1.0
  H  H86  1  0.34890000  0.92420000  0.23310000  1.0
  H  H87  1  0.33350000  0.12990000  0.16000000  1.0
  H  H88  1  0.91470000  0.54080000  0.61000000  1.0
  H  H89  1  0.09700000  0.90430000  0.14730000  1.0
  H  H90  1  0.99890000  0.88390000  0.95030000  1.0
  H  H91  1  0.11490000  0.31050000  0.65060000  1.0
  H  H92  1  0.73590000  0.63270000  0.96330000  1.0
  H  H93  1  0.75410000  0.58250000  0.46000000  1.0
  H  H94  1  0.68770000  0.56480000  0.01430000  1.0
  H  H95  1  0.01870000  0.38420000  0.60570000  1.0
  H  H96  1  0.70560000  0.64940000  0.51030000  1.0
  H  H97  1  0.02540000  0.33810000  0.45460000  1.0
  H  H98  1  0.67810000  0.67460000  0.74020000  1.0
  H  H99  1  0.77150000  0.56890000  0.34330000  1.0
  H  H100  1  0.99800000  0.83480000  0.10300000  1.0
  H  H101  1  0.86110000  0.61210000  0.65490000  1.0
  H  H102  1  0.72250000  0.68980000  0.83830000  1.0
  H  H103  1  0.88560000  0.79210000  0.83390000  1.0
  H  H104  1  0.83630000  0.77420000  0.73590000  1.0
  H  H105  1  0.72250000  0.57950000  0.24490000  1.0
  H  H106  1  0.12240000  0.26660000  0.50460000  1.0
  H  H107  1  0.88380000  0.70310000  0.11320000  1.0
  H  H108  1  0.90430000  0.41170000  0.33120000  1.0
  H  H109  1  0.09810000  0.95280000  0.99890000  1.0
  H  H110  1  0.84890000  0.42420000  0.23310000  1.0
  H  H111  1  0.83350000  0.62990000  0.16000000  1.0
  H  H112  1  0.41470000  0.95920000  0.11000000  1.0
  H  H113  1  0.59700000  0.59570000  0.64730000  1.0
  H  H114  1  0.49890000  0.61610000  0.45030000  1.0
  H  H115  1  0.61490000  0.18950000  0.15060000  1.0
  H  H116  1  0.23590000  0.86730000  0.46330000  1.0
  H  H117  1  0.25410000  0.91750000  0.96000000  1.0
  H  H118  1  0.18770000  0.93520000  0.51430000  1.0
  H  H119  1  0.51870000  0.11580000  0.10570000  1.0
  H  H120  1  0.20560000  0.85060000  0.01030000  1.0
  H  H121  1  0.52540000  0.16190000  0.95460000  1.0
  H  H122  1  0.17810000  0.82540000  0.24020000  1.0
  H  H123  1  0.27150000  0.93110000  0.84330000  1.0
  H  H124  1  0.49800000  0.66520000  0.60300000  1.0
  H  H125  1  0.36110000  0.88790000  0.15490000  1.0
  H  H126  1  0.22250000  0.81020000  0.33830000  1.0
  H  H127  1  0.38560000  0.70790000  0.33390000  1.0
  H  H128  1  0.33630000  0.72580000  0.23590000  1.0
  H  H129  1  0.22250000  0.92050000  0.74490000  1.0
  H  H130  1  0.62240000  0.23340000  0.00460000  1.0
  H  H131  1  0.38380000  0.79690000  0.61320000  1.0
  H  H132  1  0.40430000  0.08830000  0.83120000  1.0
  H  H133  1  0.59810000  0.54720000  0.49890000  1.0
  H  H134  1  0.34890000  0.07580000  0.73310000  1.0
  H  H135  1  0.33350000  0.87010000  0.66000000  1.0
  H  H136  1  0.91470000  0.45920000  0.11000000  1.0
  H  H137  1  0.09700000  0.09570000  0.64730000  1.0
  H  H138  1  0.99890000  0.11610000  0.45030000  1.0
  H  H139  1  0.11490000  0.68950000  0.15060000  1.0
  H  H140  1  0.73590000  0.36730000  0.46330000  1.0
  H  H141  1  0.75410000  0.41750000  0.96000000  1.0
  H  H142  1  0.68770000  0.43520000  0.51430000  1.0
  H  H143  1  0.01870000  0.61580000  0.10570000  1.0
  H  H144  1  0.70560000  0.35060000  0.01030000  1.0
  H  H145  1  0.02540000  0.66190000  0.95460000  1.0
  H  H146  1  0.67810000  0.32540000  0.24020000  1.0
  H  H147  1  0.77150000  0.43110000  0.84330000  1.0
  H  H148  1  0.99800000  0.16520000  0.60300000  1.0
  H  H149  1  0.86110000  0.38790000  0.15490000  1.0
  H  H150  1  0.72250000  0.31020000  0.33830000  1.0
  H  H151  1  0.88560000  0.20790000  0.33390000  1.0
  H  H152  1  0.83630000  0.22580000  0.23590000  1.0
  H  H153  1  0.72250000  0.42050000  0.74490000  1.0
  H  H154  1  0.12240000  0.73340000  0.00460000  1.0
  H  H155  1  0.88380000  0.29690000  0.61320000  1.0
  H  H156  1  0.90430000  0.58830000  0.83120000  1.0
  H  H157  1  0.09810000  0.04720000  0.49890000  1.0
  H  H158  1  0.84890000  0.57580000  0.73310000  1.0
  H  H159  1  0.83350000  0.37010000  0.66000000  1.0
  H  H160  1  0.58530000  0.95920000  0.39000000  1.0
  H  H161  1  0.40300000  0.59570000  0.85270000  1.0
  H  H162  1  0.50110000  0.61610000  0.04970000  1.0
  H  H163  1  0.38510000  0.18950000  0.34940000  1.0
  H  H164  1  0.76410000  0.86730000  0.03670000  1.0
  H  H165  1  0.74590000  0.91750000  0.54000000  1.0
  H  H166  1  0.81230000  0.93520000  0.98570000  1.0
  H  H167  1  0.48130000  0.11580000  0.39430000  1.0
  H  H168  1  0.79440000  0.85060000  0.48970000  1.0
  H  H169  1  0.47460000  0.16190000  0.54540000  1.0
  H  H170  1  0.82190000  0.82540000  0.25980000  1.0
  H  H171  1  0.72850000  0.93110000  0.65670000  1.0
  H  H172  1  0.50200000  0.66520000  0.89700000  1.0
  H  H173  1  0.63890000  0.88790000  0.34510000  1.0
  H  H174  1  0.77750000  0.81020000  0.16170000  1.0
  H  H175  1  0.61440000  0.70790000  0.16610000  1.0
  H  H176  1  0.66370000  0.72580000  0.26410000  1.0
  H  H177  1  0.77750000  0.92050000  0.75510000  1.0
  H  H178  1  0.37760000  0.23340000  0.49540000  1.0
  H  H179  1  0.61620000  0.79690000  0.88680000  1.0
  H  H180  1  0.59570000  0.08830000  0.66880000  1.0
  H  H181  1  0.40190000  0.54720000  0.00110000  1.0
  H  H182  1  0.65110000  0.07580000  0.76690000  1.0
  H  H183  1  0.66650000  0.87010000  0.84000000  1.0
  H  H184  1  0.08530000  0.45920000  0.39000000  1.0
  H  H185  1  0.90300000  0.09570000  0.85270000  1.0
  H  H186  1  0.00110000  0.11610000  0.04970000  1.0
  H  H187  1  0.88510000  0.68950000  0.34940000  1.0
  H  H188  1  0.26410000  0.36730000  0.03670000  1.0
  H  H189  1  0.24590000  0.41750000  0.54000000  1.0
  H  H190  1  0.31230000  0.43520000  0.98570000  1.0
  H  H191  1  0.98130000  0.61580000  0.39430000  1.0
  H  H192  1  0.29440000  0.35060000  0.48970000  1.0
  H  H193  1  0.97460000  0.66190000  0.54540000  1.0
  H  H194  1  0.32190000  0.32540000  0.25980000  1.0
  H  H195  1  0.22850000  0.43110000  0.65670000  1.0
  H  H196  1  0.00200000  0.16520000  0.89700000  1.0
  H  H197  1  0.13890000  0.38790000  0.34510000  1.0
  H  H198  1  0.27750000  0.31020000  0.16170000  1.0
  H  H199  1  0.11440000  0.20790000  0.16610000  1.0
  H  H200  1  0.16370000  0.22580000  0.26410000  1.0
  H  H201  1  0.27750000  0.42050000  0.75510000  1.0
  H  H202  1  0.87760000  0.73340000  0.49540000  1.0
  H  H203  1  0.11620000  0.29690000  0.88680000  1.0
  H  H204  1  0.09570000  0.58830000  0.66880000  1.0
  H  H205  1  0.90190000  0.04720000  0.00110000  1.0
  H  H206  1  0.15110000  0.57580000  0.76690000  1.0
  H  H207  1  0.16650000  0.37010000  0.84000000  1.0
  C  C208  1  0.62799000  0.06220000  0.91131000  1.0
  C  C209  1  0.42269000  0.40000000  0.39269000  1.0
  C  C210  1  0.65417000  0.21910000  0.50159000  1.0
  C  C211  1  0.62828000  0.00720000  0.00273000  1.0
  C  C212  1  0.48185000  0.38690000  0.50967000  1.0
  C  C213  1  0.40318000  0.81640000  0.88927000  1.0
  C  C214  1  0.74352000  0.13320000  0.49657000  1.0
  C  C215  1  0.57522000  0.30100000  0.50741000  1.0
  C  C216  1  0.72338000  0.08670000  0.00010000  1.0
  C  C217  1  0.77208000  0.09230000  0.46552000  1.0
  C  C218  1  0.62797000  0.97670000  0.08817000  1.0
  C  C219  1  0.66035000  0.05240000  0.97060000  1.0
  C  C220  1  0.46102000  0.86120000  0.91594000  1.0
  C  C221  1  0.75200000  0.12690000  0.96949000  1.0
  C  C222  1  0.68396000  0.17500000  0.46714000  1.0
  C  C223  1  0.65826000  0.98660000  0.15177000  1.0
  C  C224  1  0.45707000  0.83410000  0.00551000  1.0
  C  C225  1  0.77980000  0.19860000  0.74071000  1.0
  C  C226  1  0.71230000  0.03840000  0.17844000  1.0
  C  C227  1  0.48227000  0.35780000  0.41911000  1.0
  C  C228  1  0.69074000  0.24270000  0.65224000  1.0
  C  C229  1  0.66105000  0.10470000  0.88475000  1.0
  C  C230  1  0.54988000  0.92270000  0.00579000  1.0
  C  C231  1  0.75340000  0.20740000  0.68172000  1.0
  C  C232  1  0.65660000  0.26810000  0.68412000  1.0
  C  C233  1  0.68680000  0.25710000  0.74319000  1.0
  C  C234  1  0.74170000  0.04390000  0.23765000  1.0
  C  C235  1  0.39890000  0.79060000  0.97492000  1.0
  C  C236  1  0.51252000  0.34990000  0.47817000  1.0
  C  C237  1  0.65874000  0.25240000  0.58861000  1.0
  C  C238  1  0.65560000  0.17460000  0.40785000  1.0
  C  C239  1  0.63350000  0.94450000  0.18542000  1.0
  C  C240  1  0.42210000  0.42830000  0.47993000  1.0
  C  C241  1  0.48923000  0.87200000  0.97531000  1.0
  C  C242  1  0.66720000  0.95330000  0.24440000  1.0
  C  C243  1  0.68670000  0.13110000  0.38010000  1.0
  C  C244  1  0.12799000  0.56220000  0.91131000  1.0
  C  C245  1  0.92269000  0.90000000  0.39269000  1.0
  C  C246  1  0.15417000  0.71910000  0.50159000  1.0
  C  C247  1  0.12828000  0.50720000  0.00273000  1.0
  C  C248  1  0.98185000  0.88690000  0.50967000  1.0
  C  C249  1  0.90318000  0.31640000  0.88927000  1.0
  C  C250  1  0.24352000  0.63320000  0.49657000  1.0
  C  C251  1  0.07522000  0.80100000  0.50741000  1.0
  C  C252  1  0.22338000  0.58670000  0.00010000  1.0
  C  C253  1  0.27208000  0.59230000  0.46552000  1.0
  C  C254  1  0.12797000  0.47670000  0.08817000  1.0
  C  C255  1  0.16035000  0.55240000  0.97060000  1.0
  C  C256  1  0.96102000  0.36120000  0.91594000  1.0
  C  C257  1  0.25200000  0.62690000  0.96949000  1.0
  C  C258  1  0.18396000  0.67500000  0.46714000  1.0
  C  C259  1  0.15826000  0.48660000  0.15177000  1.0
  C  C260  1  0.95707000  0.33410000  0.00551000  1.0
  C  C261  1  0.27980000  0.69860000  0.74071000  1.0
  C  C262  1  0.21230000  0.53840000  0.17844000  1.0
  C  C263  1  0.98227000  0.85780000  0.41911000  1.0
  C  C264  1  0.19074000  0.74270000  0.65224000  1.0
  C  C265  1  0.16105000  0.60470000  0.88475000  1.0
  C  C266  1  0.04988000  0.42270000  0.00579000  1.0
  C  C267  1  0.25340000  0.70740000  0.68172000  1.0
  C  C268  1  0.15660000  0.76810000  0.68412000  1.0
  C  C269  1  0.18680000  0.75710000  0.74319000  1.0
  C  C270  1  0.24170000  0.54390000  0.23765000  1.0
  C  C271  1  0.89890000  0.29060000  0.97492000  1.0
  C  C272  1  0.01252000  0.84990000  0.47817000  1.0
  C  C273  1  0.15874000  0.75240000  0.58861000  1.0
  C  C274  1  0.15560000  0.67460000  0.40785000  1.0
  C  C275  1  0.13350000  0.44450000  0.18542000  1.0
  C  C276  1  0.92210000  0.92830000  0.47993000  1.0
  C  C277  1  0.98923000  0.37200000  0.97531000  1.0
  C  C278  1  0.16720000  0.45330000  0.24440000  1.0
  C  C279  1  0.18670000  0.63110000  0.38010000  1.0
  C  C280  1  0.37201000  0.06220000  0.58869000  1.0
  C  C281  1  0.57731000  0.40000000  0.10731000  1.0
  C  C282  1  0.34583000  0.21910000  0.99841000  1.0
  C  C283  1  0.37172000  0.00720000  0.49727000  1.0
  C  C284  1  0.51815000  0.38690000  0.99033000  1.0
  C  C285  1  0.59682000  0.81640000  0.61073000  1.0
  C  C286  1  0.25648000  0.13320000  0.00343000  1.0
  C  C287  1  0.42478000  0.30100000  0.99259000  1.0
  C  C288  1  0.27662000  0.08670000  0.49990000  1.0
  C  C289  1  0.22792000  0.09230000  0.03448000  1.0
  C  C290  1  0.37203000  0.97670000  0.41183000  1.0
  C  C291  1  0.33965000  0.05240000  0.52940000  1.0
  C  C292  1  0.53898000  0.86120000  0.58406000  1.0
  C  C293  1  0.24800000  0.12690000  0.53051000  1.0
  C  C294  1  0.31604000  0.17500000  0.03286000  1.0
  C  C295  1  0.34174000  0.98660000  0.34823000  1.0
  C  C296  1  0.54293000  0.83410000  0.49449000  1.0
  C  C297  1  0.22020000  0.19860000  0.75929000  1.0
  C  C298  1  0.28770000  0.03840000  0.32156000  1.0
  C  C299  1  0.51773000  0.35780000  0.08089000  1.0
  C  C300  1  0.30926000  0.24270000  0.84776000  1.0
  C  C301  1  0.33895000  0.10470000  0.61525000  1.0
  C  C302  1  0.45012000  0.92270000  0.49421000  1.0
  C  C303  1  0.24660000  0.20740000  0.81828000  1.0
  C  C304  1  0.34340000  0.26810000  0.81588000  1.0
  C  C305  1  0.31320000  0.25710000  0.75681000  1.0
  C  C306  1  0.25830000  0.04390000  0.26235000  1.0
  C  C307  1  0.60110000  0.79060000  0.52508000  1.0
  C  C308  1  0.48748000  0.34990000  0.02183000  1.0
  C  C309  1  0.34126000  0.25240000  0.91139000  1.0
  C  C310  1  0.34440000  0.17460000  0.09215000  1.0
  C  C311  1  0.36650000  0.94450000  0.31458000  1.0
  C  C312  1  0.57790000  0.42830000  0.02007000  1.0
  C  C313  1  0.51077000  0.87200000  0.52469000  1.0
  C  C314  1  0.33280000  0.95330000  0.25560000  1.0
  C  C315  1  0.31330000  0.13110000  0.11990000  1.0
  C  C316  1  0.87201000  0.56220000  0.58869000  1.0
  C  C317  1  0.07731000  0.90000000  0.10731000  1.0
  C  C318  1  0.84583000  0.71910000  0.99841000  1.0
  C  C319  1  0.87172000  0.50720000  0.49727000  1.0
  C  C320  1  0.01815000  0.88690000  0.99033000  1.0
  C  C321  1  0.09682000  0.31640000  0.61073000  1.0
  C  C322  1  0.75648000  0.63320000  0.00343000  1.0
  C  C323  1  0.92478000  0.80100000  0.99259000  1.0
  C  C324  1  0.77662000  0.58670000  0.49990000  1.0
  C  C325  1  0.72792000  0.59230000  0.03448000  1.0
  C  C326  1  0.87203000  0.47670000  0.41183000  1.0
  C  C327  1  0.83965000  0.55240000  0.52940000  1.0
  C  C328  1  0.03898000  0.36120000  0.58406000  1.0
  C  C329  1  0.74800000  0.62690000  0.53051000  1.0
  C  C330  1  0.81604000  0.67500000  0.03286000  1.0
  C  C331  1  0.84174000  0.48660000  0.34823000  1.0
  C  C332  1  0.04293000  0.33410000  0.49449000  1.0
  C  C333  1  0.72020000  0.69860000  0.75929000  1.0
  C  C334  1  0.78770000  0.53840000  0.32156000  1.0
  C  C335  1  0.01773000  0.85780000  0.08089000  1.0
  C  C336  1  0.80926000  0.74270000  0.84776000  1.0
  C  C337  1  0.83895000  0.60470000  0.61525000  1.0
  C  C338  1  0.95012000  0.42270000  0.49421000  1.0
  C  C339  1  0.74660000  0.70740000  0.81828000  1.0
  C  C340  1  0.84340000  0.76810000  0.81588000  1.0
  C  C341  1  0.81320000  0.75710000  0.75681000  1.0
  C  C342  1  0.75830000  0.54390000  0.26235000  1.0
  C  C343  1  0.10110000  0.29060000  0.52508000  1.0
  C  C344  1  0.98748000  0.84990000  0.02183000  1.0
  C  C345  1  0.84126000  0.75240000  0.91139000  1.0
  C  C346  1  0.84440000  0.67460000  0.09215000  1.0
  C  C347  1  0.86650000  0.44450000  0.31458000  1.0
  C  C348  1  0.07790000  0.92830000  0.02007000  1.0
  C  C349  1  0.01077000  0.37200000  0.52469000  1.0
  C  C350  1  0.83280000  0.45330000  0.25560000  1.0
  C  C351  1  0.81330000  0.63110000  0.11990000  1.0
  C  C352  1  0.37201000  0.93780000  0.08869000  1.0
  C  C353  1  0.57731000  0.60000000  0.60731000  1.0
  C  C354  1  0.34583000  0.78090000  0.49841000  1.0
  C  C355  1  0.37172000  0.99280000  0.99727000  1.0
  C  C356  1  0.51815000  0.61310000  0.49033000  1.0
  C  C357  1  0.59682000  0.18360000  0.11073000  1.0
  C  C358  1  0.25648000  0.86680000  0.50343000  1.0
  C  C359  1  0.42478000  0.69900000  0.49259000  1.0
  C  C360  1  0.27662000  0.91330000  0.99990000  1.0
  C  C361  1  0.22792000  0.90770000  0.53448000  1.0
  C  C362  1  0.37203000  0.02330000  0.91183000  1.0
  C  C363  1  0.33965000  0.94760000  0.02940000  1.0
  C  C364  1  0.53898000  0.13880000  0.08406000  1.0
  C  C365  1  0.24800000  0.87310000  0.03051000  1.0
  C  C366  1  0.31604000  0.82500000  0.53286000  1.0
  C  C367  1  0.34174000  0.01340000  0.84823000  1.0
  C  C368  1  0.54293000  0.16590000  0.99449000  1.0
  C  C369  1  0.22020000  0.80140000  0.25929000  1.0
  C  C370  1  0.28770000  0.96160000  0.82156000  1.0
  C  C371  1  0.51773000  0.64220000  0.58089000  1.0
  C  C372  1  0.30926000  0.75730000  0.34776000  1.0
  C  C373  1  0.33895000  0.89530000  0.11525000  1.0
  C  C374  1  0.45012000  0.07730000  0.99421000  1.0
  C  C375  1  0.24660000  0.79260000  0.31828000  1.0
  C  C376  1  0.34340000  0.73190000  0.31588000  1.0
  C  C377  1  0.31320000  0.74290000  0.25681000  1.0
  C  C378  1  0.25830000  0.95610000  0.76235000  1.0
  C  C379  1  0.60110000  0.20940000  0.02508000  1.0
  C  C380  1  0.48748000  0.65010000  0.52183000  1.0
  C  C381  1  0.34126000  0.74760000  0.41139000  1.0
  C  C382  1  0.34440000  0.82540000  0.59215000  1.0
  C  C383  1  0.36650000  0.05550000  0.81458000  1.0
  C  C384  1  0.57790000  0.57170000  0.52007000  1.0
  C  C385  1  0.51077000  0.12800000  0.02469000  1.0
  C  C386  1  0.33280000  0.04670000  0.75560000  1.0
  C  C387  1  0.31330000  0.86890000  0.61990000  1.0
  C  C388  1  0.87201000  0.43780000  0.08869000  1.0
  C  C389  1  0.07731000  0.10000000  0.60731000  1.0
  C  C390  1  0.84583000  0.28090000  0.49841000  1.0
  C  C391  1  0.87172000  0.49280000  0.99727000  1.0
  C  C392  1  0.01815000  0.11310000  0.49033000  1.0
  C  C393  1  0.09682000  0.68360000  0.11073000  1.0
  C  C394  1  0.75648000  0.36680000  0.50343000  1.0
  C  C395  1  0.92478000  0.19900000  0.49259000  1.0
  C  C396  1  0.77662000  0.41330000  0.99990000  1.0
  C  C397  1  0.72792000  0.40770000  0.53448000  1.0
  C  C398  1  0.87203000  0.52330000  0.91183000  1.0
  C  C399  1  0.83965000  0.44760000  0.02940000  1.0
  C  C400  1  0.03898000  0.63880000  0.08406000  1.0
  C  C401  1  0.74800000  0.37310000  0.03051000  1.0
  C  C402  1  0.81604000  0.32500000  0.53286000  1.0
  C  C403  1  0.84174000  0.51340000  0.84823000  1.0
  C  C404  1  0.04293000  0.66590000  0.99449000  1.0
  C  C405  1  0.72020000  0.30140000  0.25929000  1.0
  C  C406  1  0.78770000  0.46160000  0.82156000  1.0
  C  C407  1  0.01773000  0.14220000  0.58089000  1.0
  C  C408  1  0.80926000  0.25730000  0.34776000  1.0
  C  C409  1  0.83895000  0.39530000  0.11525000  1.0
  C  C410  1  0.95012000  0.57730000  0.99421000  1.0
  C  C411  1  0.74660000  0.29260000  0.31828000  1.0
  C  C412  1  0.84340000  0.23190000  0.31588000  1.0
  C  C413  1  0.81320000  0.24290000  0.25681000  1.0
  C  C414  1  0.75830000  0.45610000  0.76235000  1.0
  C  C415  1  0.10110000  0.70940000  0.02508000  1.0
  C  C416  1  0.98748000  0.15010000  0.52183000  1.0
  C  C417  1  0.84126000  0.24760000  0.41139000  1.0
  C  C418  1  0.84440000  0.32540000  0.59215000  1.0
  C  C419  1  0.86650000  0.55550000  0.81458000  1.0
  C  C420  1  0.07790000  0.07170000  0.52007000  1.0
  C  C421  1  0.01077000  0.62800000  0.02469000  1.0
  C  C422  1  0.83280000  0.54670000  0.75560000  1.0
  C  C423  1  0.81330000  0.36890000  0.61990000  1.0
  C  C424  1  0.62799000  0.93780000  0.41131000  1.0
  C  C425  1  0.42269000  0.60000000  0.89269000  1.0
  C  C426  1  0.65417000  0.78090000  0.00159000  1.0
  C  C427  1  0.62828000  0.99280000  0.50273000  1.0
  C  C428  1  0.48185000  0.61310000  0.00967000  1.0
  C  C429  1  0.40318000  0.18360000  0.38927000  1.0
  C  C430  1  0.74352000  0.86680000  0.99657000  1.0
  C  C431  1  0.57522000  0.69900000  0.00741000  1.0
  C  C432  1  0.72338000  0.91330000  0.50010000  1.0
  C  C433  1  0.77208000  0.90770000  0.96552000  1.0
  C  C434  1  0.62797000  0.02330000  0.58817000  1.0
  C  C435  1  0.66035000  0.94760000  0.47060000  1.0
  C  C436  1  0.46102000  0.13880000  0.41594000  1.0
  C  C437  1  0.75200000  0.87310000  0.46949000  1.0
  C  C438  1  0.68396000  0.82500000  0.96714000  1.0
  C  C439  1  0.65826000  0.01340000  0.65177000  1.0
  C  C440  1  0.45707000  0.16590000  0.50551000  1.0
  C  C441  1  0.77980000  0.80140000  0.24071000  1.0
  C  C442  1  0.71230000  0.96160000  0.67844000  1.0
  C  C443  1  0.48227000  0.64220000  0.91911000  1.0
  C  C444  1  0.69074000  0.75730000  0.15224000  1.0
  C  C445  1  0.66105000  0.89530000  0.38475000  1.0
  C  C446  1  0.54988000  0.07730000  0.50579000  1.0
  C  C447  1  0.75340000  0.79260000  0.18172000  1.0
  C  C448  1  0.65660000  0.73190000  0.18412000  1.0
  C  C449  1  0.68680000  0.74290000  0.24319000  1.0
  C  C450  1  0.74170000  0.95610000  0.73765000  1.0
  C  C451  1  0.39890000  0.20940000  0.47492000  1.0
  C  C452  1  0.51252000  0.65010000  0.97817000  1.0
  C  C453  1  0.65874000  0.74760000  0.08861000  1.0
  C  C454  1  0.65560000  0.82540000  0.90785000  1.0
  C  C455  1  0.63350000  0.05550000  0.68542000  1.0
  C  C456  1  0.42210000  0.57170000  0.97993000  1.0
  C  C457  1  0.48923000  0.12800000  0.47531000  1.0
  C  C458  1  0.66720000  0.04670000  0.74440000  1.0
  C  C459  1  0.68670000  0.86890000  0.88010000  1.0
  C  C460  1  0.12799000  0.43780000  0.41131000  1.0
  C  C461  1  0.92269000  0.10000000  0.89269000  1.0
  C  C462  1  0.15417000  0.28090000  0.00159000  1.0
  C  C463  1  0.12828000  0.49280000  0.50273000  1.0
  C  C464  1  0.98185000  0.11310000  0.00967000  1.0
  C  C465  1  0.90318000  0.68360000  0.38927000  1.0
  C  C466  1  0.24352000  0.36680000  0.99657000  1.0
  C  C467  1  0.07522000  0.19900000  0.00741000  1.0
  C  C468  1  0.22338000  0.41330000  0.50010000  1.0
  C  C469  1  0.27208000  0.40770000  0.96552000  1.0
  C  C470  1  0.12797000  0.52330000  0.58817000  1.0
  C  C471  1  0.16035000  0.44760000  0.47060000  1.0
  C  C472  1  0.96102000  0.63880000  0.41594000  1.0
  C  C473  1  0.25200000  0.37310000  0.46949000  1.0
  C  C474  1  0.18396000  0.32500000  0.96714000  1.0
  C  C475  1  0.15826000  0.51340000  0.65177000  1.0
  C  C476  1  0.95707000  0.66590000  0.50551000  1.0
  C  C477  1  0.27980000  0.30140000  0.24071000  1.0
  C  C478  1  0.21230000  0.46160000  0.67844000  1.0
  C  C479  1  0.98227000  0.14220000  0.91911000  1.0
  C  C480  1  0.19074000  0.25730000  0.15224000  1.0
  C  C481  1  0.16105000  0.39530000  0.38475000  1.0
  C  C482  1  0.04988000  0.57730000  0.50579000  1.0
  C  C483  1  0.25340000  0.29260000  0.18172000  1.0
  C  C484  1  0.15660000  0.23190000  0.18412000  1.0
  C  C485  1  0.18680000  0.24290000  0.24319000  1.0
  C  C486  1  0.24170000  0.45610000  0.73765000  1.0
  C  C487  1  0.89890000  0.70940000  0.47492000  1.0
  C  C488  1  0.01252000  0.15010000  0.97817000  1.0
  C  C489  1  0.15874000  0.24760000  0.08861000  1.0
  C  C490  1  0.15560000  0.32540000  0.90785000  1.0
  C  C491  1  0.13350000  0.55550000  0.68542000  1.0
  C  C492  1  0.92210000  0.07170000  0.97993000  1.0
  C  C493  1  0.98923000  0.62800000  0.47531000  1.0
  C  C494  1  0.16720000  0.54670000  0.74440000  1.0
  C  C495  1  0.18670000  0.36890000  0.88010000  1.0
  N  N496  1  0.37125000  0.78079000  0.91762000  1.0
  N  N497  1  0.72237000  0.13560000  0.91218000  1.0
  N  N498  1  0.72120000  0.00020000  0.27180000  1.0
  N  N499  1  0.57468000  0.96100000  0.97300000  1.0
  N  N500  1  0.65627000  0.01850000  0.05984000  1.0
  N  N501  1  0.57488000  0.92750000  0.06315000  1.0
  N  N502  1  0.74471000  0.09020000  0.40804000  1.0
  N  N503  1  0.74701000  0.22330000  0.77197000  1.0
  N  N504  1  0.39173000  0.43520000  0.42212000  1.0
  N  N505  1  0.59751000  0.26020000  0.47349000  1.0
  N  N506  1  0.68699000  0.21260000  0.55933000  1.0
  N  N507  1  0.60405000  0.29930000  0.56481000  1.0
  N  N508  1  0.87125000  0.28079000  0.91762000  1.0
  N  N509  1  0.22237000  0.63560000  0.91218000  1.0
  N  N510  1  0.22120000  0.50020000  0.27180000  1.0
  N  N511  1  0.07468000  0.46100000  0.97300000  1.0
  N  N512  1  0.15627000  0.51850000  0.05984000  1.0
  N  N513  1  0.07488000  0.42750000  0.06315000  1.0
  N  N514  1  0.24471000  0.59020000  0.40804000  1.0
  N  N515  1  0.24701000  0.72330000  0.77197000  1.0
  N  N516  1  0.89173000  0.93520000  0.42212000  1.0
  N  N517  1  0.09751000  0.76020000  0.47349000  1.0
  N  N518  1  0.18699000  0.71260000  0.55933000  1.0
  N  N519  1  0.10405000  0.79930000  0.56481000  1.0
  N  N520  1  0.62875000  0.78079000  0.58238000  1.0
  N  N521  1  0.27763000  0.13560000  0.58782000  1.0
  N  N522  1  0.27880000  0.00020000  0.22820000  1.0
  N  N523  1  0.42532000  0.96100000  0.52700000  1.0
  N  N524  1  0.34373000  0.01850000  0.44016000  1.0
  N  N525  1  0.42512000  0.92750000  0.43685000  1.0
  N  N526  1  0.25529000  0.09020000  0.09196000  1.0
  N  N527  1  0.25299000  0.22330000  0.72803000  1.0
  N  N528  1  0.60827000  0.43520000  0.07788000  1.0
  N  N529  1  0.40249000  0.26020000  0.02651000  1.0
  N  N530  1  0.31301000  0.21260000  0.94067000  1.0
  N  N531  1  0.39595000  0.29930000  0.93519000  1.0
  N  N532  1  0.12875000  0.28079000  0.58238000  1.0
  N  N533  1  0.77763000  0.63560000  0.58782000  1.0
  N  N534  1  0.77880000  0.50020000  0.22820000  1.0
  N  N535  1  0.92532000  0.46100000  0.52700000  1.0
  N  N536  1  0.84373000  0.51850000  0.44016000  1.0
  N  N537  1  0.92512000  0.42750000  0.43685000  1.0
  N  N538  1  0.75529000  0.59020000  0.09196000  1.0
  N  N539  1  0.75299000  0.72330000  0.72803000  1.0
  N  N540  1  0.10827000  0.93520000  0.07788000  1.0
  N  N541  1  0.90249000  0.76020000  0.02651000  1.0
  N  N542  1  0.81301000  0.71260000  0.94067000  1.0
  N  N543  1  0.89595000  0.79930000  0.93519000  1.0
  N  N544  1  0.62875000  0.21921000  0.08238000  1.0
  N  N545  1  0.27763000  0.86440000  0.08782000  1.0
  N  N546  1  0.27880000  0.99980000  0.72820000  1.0
  N  N547  1  0.42532000  0.03900000  0.02700000  1.0
  N  N548  1  0.34373000  0.98150000  0.94016000  1.0
  N  N549  1  0.42512000  0.07250000  0.93685000  1.0
  N  N550  1  0.25529000  0.90980000  0.59196000  1.0
  N  N551  1  0.25299000  0.77670000  0.22803000  1.0
  N  N552  1  0.60827000  0.56480000  0.57788000  1.0
  N  N553  1  0.40249000  0.73980000  0.52651000  1.0
  N  N554  1  0.31301000  0.78740000  0.44067000  1.0
  N  N555  1  0.39595000  0.70070000  0.43519000  1.0
  N  N556  1  0.12875000  0.71921000  0.08238000  1.0
  N  N557  1  0.77763000  0.36440000  0.08782000  1.0
  N  N558  1  0.77880000  0.49980000  0.72820000  1.0
  N  N559  1  0.92532000  0.53900000  0.02700000  1.0
  N  N560  1  0.84373000  0.48150000  0.94016000  1.0
  N  N561  1  0.92512000  0.57250000  0.93685000  1.0
  N  N562  1  0.75529000  0.40980000  0.59196000  1.0
  N  N563  1  0.75299000  0.27670000  0.22803000  1.0
  N  N564  1  0.10827000  0.06480000  0.57788000  1.0
  N  N565  1  0.90249000  0.23980000  0.52651000  1.0
  N  N566  1  0.81301000  0.28740000  0.44067000  1.0
  N  N567  1  0.89595000  0.20070000  0.43519000  1.0
  N  N568  1  0.37125000  0.21921000  0.41762000  1.0
  N  N569  1  0.72237000  0.86440000  0.41218000  1.0
  N  N570  1  0.72120000  0.99980000  0.77180000  1.0
  N  N571  1  0.57468000  0.03900000  0.47300000  1.0
  N  N572  1  0.65627000  0.98150000  0.55984000  1.0
  N  N573  1  0.57488000  0.07250000  0.56315000  1.0
  N  N574  1  0.74471000  0.90980000  0.90804000  1.0
  N  N575  1  0.74701000  0.77670000  0.27197000  1.0
  N  N576  1  0.39173000  0.56480000  0.92212000  1.0
  N  N577  1  0.59751000  0.73980000  0.97349000  1.0
  N  N578  1  0.68699000  0.78740000  0.05933000  1.0
  N  N579  1  0.60405000  0.70070000  0.06481000  1.0
  N  N580  1  0.87125000  0.71921000  0.41762000  1.0
  N  N581  1  0.22237000  0.36440000  0.41218000  1.0
  N  N582  1  0.22120000  0.49980000  0.77180000  1.0
  N  N583  1  0.07468000  0.53900000  0.47300000  1.0
  N  N584  1  0.15627000  0.48150000  0.55984000  1.0
  N  N585  1  0.07488000  0.57250000  0.56315000  1.0
  N  N586  1  0.24471000  0.40980000  0.90804000  1.0
  N  N587  1  0.24701000  0.27670000  0.27197000  1.0
  N  N588  1  0.89173000  0.06480000  0.92212000  1.0
  N  N589  1  0.09751000  0.23980000  0.97349000  1.0
  N  N590  1  0.18699000  0.28740000  0.05933000  1.0
  N  N591  1  0.10405000  0.20070000  0.06481000  1.0
