# generated using pymatgen
data_AgH12(C3N)6
_symmetry_space_group_name_H-M   'P 1'
_cell_length_a   21.98480000
_cell_length_b   16.56170000
_cell_length_c   25.64430000
_cell_angle_alpha   90.00000000
_cell_angle_beta   115.36600000
_cell_angle_gamma   90.00000000
_symmetry_Int_Tables_number   1
_chemical_formula_structural   AgH12(C3N)6
_chemical_formula_sum   'Ag16 H192 C288 N96'
_cell_volume   8437.02893163
_cell_formula_units_Z   16
loop_
 _symmetry_equiv_pos_site_id
 _symmetry_equiv_pos_as_xyz
  1  'x, y, z'
loop_
 _atom_site_type_symbol
 _atom_site_label
 _atom_site_symmetry_multiplicity
 _atom_site_fract_x
 _atom_site_fract_y
 _atom_site_fract_z
 _atom_site_occupancy
  Ag  Ag0  1  0.27390000  0.20897000  0.86825000  1.0
  Ag  Ag1  1  0.79500000  0.50132000  0.36769000  1.0
  Ag  Ag2  1  0.77390000  0.70897000  0.86825000  1.0
  Ag  Ag3  1  0.29500000  0.00132000  0.36769000  1.0
  Ag  Ag4  1  0.72610000  0.20897000  0.63175000  1.0
  Ag  Ag5  1  0.20500000  0.50132000  0.13231000  1.0
  Ag  Ag6  1  0.22610000  0.70897000  0.63175000  1.0
  Ag  Ag7  1  0.70500000  0.00132000  0.13231000  1.0
  Ag  Ag8  1  0.72610000  0.79103000  0.13175000  1.0
  Ag  Ag9  1  0.20500000  0.49868000  0.63231000  1.0
  Ag  Ag10  1  0.22610000  0.29103000  0.13175000  1.0
  Ag  Ag11  1  0.70500000  0.99868000  0.63231000  1.0
  Ag  Ag12  1  0.27390000  0.79103000  0.36825000  1.0
  Ag  Ag13  1  0.79500000  0.49868000  0.86769000  1.0
  Ag  Ag14  1  0.77390000  0.29103000  0.36825000  1.0
  Ag  Ag15  1  0.29500000  0.99868000  0.86769000  1.0
  H  H16  1  0.40290000  0.90500000  0.35260000  1.0
  H  H17  1  0.58550000  0.53980000  0.89000000  1.0
  H  H18  1  0.50140000  0.88420000  0.54950000  1.0
  H  H19  1  0.38460000  0.31130000  0.84930000  1.0
  H  H20  1  0.76390000  0.63300000  0.53640000  1.0
  H  H21  1  0.74550000  0.58210000  0.03940000  1.0
  H  H22  1  0.81220000  0.56540000  0.48580000  1.0
  H  H23  1  0.79420000  0.64900000  0.98960000  1.0
  H  H24  1  0.47500000  0.33800000  0.04560000  1.0
  H  H25  1  0.48130000  0.38360000  0.89390000  1.0
  H  H26  1  0.50160000  0.83410000  0.39640000  1.0
  H  H27  1  0.82150000  0.67500000  0.75940000  1.0
  H  H28  1  0.77670000  0.68890000  0.66100000  1.0
  H  H29  1  0.63880000  0.61120000  0.84460000  1.0
  H  H30  1  0.61420000  0.79180000  0.66620000  1.0
  H  H31  1  0.72840000  0.56860000  0.15660000  1.0
  H  H32  1  0.66400000  0.77500000  0.76400000  1.0
  H  H33  1  0.37760000  0.26640000  0.99510000  1.0
  H  H34  1  0.77730000  0.57880000  0.25530000  1.0
  H  H35  1  0.61630000  0.70330000  0.38640000  1.0
  H  H36  1  0.59530000  0.41270000  0.16870000  1.0
  H  H37  1  0.40210000  0.95300000  0.50100000  1.0
  H  H38  1  0.65180000  0.42430000  0.26710000  1.0
  H  H39  1  0.66600000  0.62990000  0.33980000  1.0
  H  H40  1  0.90290000  0.40500000  0.35260000  1.0
  H  H41  1  0.08550000  0.03980000  0.89000000  1.0
  H  H42  1  0.00140000  0.38420000  0.54950000  1.0
  H  H43  1  0.88460000  0.81130000  0.84930000  1.0
  H  H44  1  0.26390000  0.13300000  0.53640000  1.0
  H  H45  1  0.24550000  0.08210000  0.03940000  1.0
  H  H46  1  0.31220000  0.06540000  0.48580000  1.0
  H  H47  1  0.29420000  0.14900000  0.98960000  1.0
  H  H48  1  0.97500000  0.83800000  0.04560000  1.0
  H  H49  1  0.98130000  0.88360000  0.89390000  1.0
  H  H50  1  0.00160000  0.33410000  0.39640000  1.0
  H  H51  1  0.32150000  0.17500000  0.75940000  1.0
  H  H52  1  0.27670000  0.18890000  0.66100000  1.0
  H  H53  1  0.13880000  0.11120000  0.84460000  1.0
  H  H54  1  0.11420000  0.29180000  0.66620000  1.0
  H  H55  1  0.22840000  0.06860000  0.15660000  1.0
  H  H56  1  0.16400000  0.27500000  0.76400000  1.0
  H  H57  1  0.87760000  0.76640000  0.99510000  1.0
  H  H58  1  0.27730000  0.07880000  0.25530000  1.0
  H  H59  1  0.11630000  0.20330000  0.38640000  1.0
  H  H60  1  0.09530000  0.91270000  0.16870000  1.0
  H  H61  1  0.90210000  0.45300000  0.50100000  1.0
  H  H62  1  0.15180000  0.92430000  0.26710000  1.0
  H  H63  1  0.16600000  0.12990000  0.33980000  1.0
  H  H64  1  0.59710000  0.90500000  0.14740000  1.0
  H  H65  1  0.41450000  0.53980000  0.61000000  1.0
  H  H66  1  0.49860000  0.88420000  0.95050000  1.0
  H  H67  1  0.61540000  0.31130000  0.65070000  1.0
  H  H68  1  0.23610000  0.63300000  0.96360000  1.0
  H  H69  1  0.25450000  0.58210000  0.46060000  1.0
  H  H70  1  0.18780000  0.56540000  0.01420000  1.0
  H  H71  1  0.20580000  0.64900000  0.51040000  1.0
  H  H72  1  0.52500000  0.33800000  0.45440000  1.0
  H  H73  1  0.51870000  0.38360000  0.60610000  1.0
  H  H74  1  0.49840000  0.83410000  0.10360000  1.0
  H  H75  1  0.17850000  0.67500000  0.74060000  1.0
  H  H76  1  0.22330000  0.68890000  0.83900000  1.0
  H  H77  1  0.36120000  0.61120000  0.65540000  1.0
  H  H78  1  0.38580000  0.79180000  0.83380000  1.0
  H  H79  1  0.27160000  0.56860000  0.34340000  1.0
  H  H80  1  0.33600000  0.77500000  0.73600000  1.0
  H  H81  1  0.62240000  0.26640000  0.50490000  1.0
  H  H82  1  0.22270000  0.57880000  0.24470000  1.0
  H  H83  1  0.38370000  0.70330000  0.11360000  1.0
  H  H84  1  0.40470000  0.41270000  0.33130000  1.0
  H  H85  1  0.59790000  0.95300000  0.99900000  1.0
  H  H86  1  0.34820000  0.42430000  0.23290000  1.0
  H  H87  1  0.33400000  0.62990000  0.16020000  1.0
  H  H88  1  0.09710000  0.40500000  0.14740000  1.0
  H  H89  1  0.91450000  0.03980000  0.61000000  1.0
  H  H90  1  0.99860000  0.38420000  0.95050000  1.0
  H  H91  1  0.11540000  0.81130000  0.65070000  1.0
  H  H92  1  0.73610000  0.13300000  0.96360000  1.0
  H  H93  1  0.75450000  0.08210000  0.46060000  1.0
  H  H94  1  0.68780000  0.06540000  0.01420000  1.0
  H  H95  1  0.70580000  0.14900000  0.51040000  1.0
  H  H96  1  0.02500000  0.83800000  0.45440000  1.0
  H  H97  1  0.01870000  0.88360000  0.60610000  1.0
  H  H98  1  0.99840000  0.33410000  0.10360000  1.0
  H  H99  1  0.67850000  0.17500000  0.74060000  1.0
  H  H100  1  0.72330000  0.18890000  0.83900000  1.0
  H  H101  1  0.86120000  0.11120000  0.65540000  1.0
  H  H102  1  0.88580000  0.29180000  0.83380000  1.0
  H  H103  1  0.77160000  0.06860000  0.34340000  1.0
  H  H104  1  0.83600000  0.27500000  0.73600000  1.0
  H  H105  1  0.12240000  0.76640000  0.50490000  1.0
  H  H106  1  0.72270000  0.07880000  0.24470000  1.0
  H  H107  1  0.88370000  0.20330000  0.11360000  1.0
  H  H108  1  0.90470000  0.91270000  0.33130000  1.0
  H  H109  1  0.09790000  0.45300000  0.99900000  1.0
  H  H110  1  0.84820000  0.92430000  0.23290000  1.0
  H  H111  1  0.83400000  0.12990000  0.16020000  1.0
  H  H112  1  0.59710000  0.09500000  0.64740000  1.0
  H  H113  1  0.41450000  0.46020000  0.11000000  1.0
  H  H114  1  0.49860000  0.11580000  0.45050000  1.0
  H  H115  1  0.61540000  0.68870000  0.15070000  1.0
  H  H116  1  0.23610000  0.36700000  0.46360000  1.0
  H  H117  1  0.25450000  0.41790000  0.96060000  1.0
  H  H118  1  0.18780000  0.43460000  0.51420000  1.0
  H  H119  1  0.20580000  0.35100000  0.01040000  1.0
  H  H120  1  0.52500000  0.66200000  0.95440000  1.0
  H  H121  1  0.51870000  0.61640000  0.10610000  1.0
  H  H122  1  0.49840000  0.16590000  0.60360000  1.0
  H  H123  1  0.17850000  0.32500000  0.24060000  1.0
  H  H124  1  0.22330000  0.31110000  0.33900000  1.0
  H  H125  1  0.36120000  0.38880000  0.15540000  1.0
  H  H126  1  0.38580000  0.20820000  0.33380000  1.0
  H  H127  1  0.27160000  0.43140000  0.84340000  1.0
  H  H128  1  0.33600000  0.22500000  0.23600000  1.0
  H  H129  1  0.62240000  0.73360000  0.00490000  1.0
  H  H130  1  0.22270000  0.42120000  0.74470000  1.0
  H  H131  1  0.38370000  0.29670000  0.61360000  1.0
  H  H132  1  0.40470000  0.58730000  0.83130000  1.0
  H  H133  1  0.59790000  0.04700000  0.49900000  1.0
  H  H134  1  0.34820000  0.57570000  0.73290000  1.0
  H  H135  1  0.33400000  0.37010000  0.66020000  1.0
  H  H136  1  0.09710000  0.59500000  0.64740000  1.0
  H  H137  1  0.91450000  0.96020000  0.11000000  1.0
  H  H138  1  0.99860000  0.61580000  0.45050000  1.0
  H  H139  1  0.11540000  0.18870000  0.15070000  1.0
  H  H140  1  0.73610000  0.86700000  0.46360000  1.0
  H  H141  1  0.75450000  0.91790000  0.96060000  1.0
  H  H142  1  0.68780000  0.93460000  0.51420000  1.0
  H  H143  1  0.70580000  0.85100000  0.01040000  1.0
  H  H144  1  0.02500000  0.16200000  0.95440000  1.0
  H  H145  1  0.01870000  0.11640000  0.10610000  1.0
  H  H146  1  0.99840000  0.66590000  0.60360000  1.0
  H  H147  1  0.67850000  0.82500000  0.24060000  1.0
  H  H148  1  0.72330000  0.81110000  0.33900000  1.0
  H  H149  1  0.86120000  0.88880000  0.15540000  1.0
  H  H150  1  0.88580000  0.70820000  0.33380000  1.0
  H  H151  1  0.77160000  0.93140000  0.84340000  1.0
  H  H152  1  0.83600000  0.72500000  0.23600000  1.0
  H  H153  1  0.12240000  0.23360000  0.00490000  1.0
  H  H154  1  0.72270000  0.92120000  0.74470000  1.0
  H  H155  1  0.88370000  0.79670000  0.61360000  1.0
  H  H156  1  0.90470000  0.08730000  0.83130000  1.0
  H  H157  1  0.09790000  0.54700000  0.49900000  1.0
  H  H158  1  0.84820000  0.07570000  0.73290000  1.0
  H  H159  1  0.83400000  0.87010000  0.66020000  1.0
  H  H160  1  0.40290000  0.09500000  0.85260000  1.0
  H  H161  1  0.58550000  0.46020000  0.39000000  1.0
  H  H162  1  0.50140000  0.11580000  0.04950000  1.0
  H  H163  1  0.38460000  0.68870000  0.34930000  1.0
  H  H164  1  0.76390000  0.36700000  0.03640000  1.0
  H  H165  1  0.74550000  0.41790000  0.53940000  1.0
  H  H166  1  0.81220000  0.43460000  0.98580000  1.0
  H  H167  1  0.79420000  0.35100000  0.48960000  1.0
  H  H168  1  0.47500000  0.66200000  0.54560000  1.0
  H  H169  1  0.48130000  0.61640000  0.39390000  1.0
  H  H170  1  0.50160000  0.16590000  0.89640000  1.0
  H  H171  1  0.82150000  0.32500000  0.25940000  1.0
  H  H172  1  0.77670000  0.31110000  0.16100000  1.0
  H  H173  1  0.63880000  0.38880000  0.34460000  1.0
  H  H174  1  0.61420000  0.20820000  0.16620000  1.0
  H  H175  1  0.72840000  0.43140000  0.65660000  1.0
  H  H176  1  0.66400000  0.22500000  0.26400000  1.0
  H  H177  1  0.37760000  0.73360000  0.49510000  1.0
  H  H178  1  0.77730000  0.42120000  0.75530000  1.0
  H  H179  1  0.61630000  0.29670000  0.88640000  1.0
  H  H180  1  0.59530000  0.58730000  0.66870000  1.0
  H  H181  1  0.40210000  0.04700000  0.00100000  1.0
  H  H182  1  0.65180000  0.57570000  0.76710000  1.0
  H  H183  1  0.66600000  0.37010000  0.83980000  1.0
  H  H184  1  0.90290000  0.59500000  0.85260000  1.0
  H  H185  1  0.08550000  0.96020000  0.39000000  1.0
  H  H186  1  0.00140000  0.61580000  0.04950000  1.0
  H  H187  1  0.88460000  0.18870000  0.34930000  1.0
  H  H188  1  0.26390000  0.86700000  0.03640000  1.0
  H  H189  1  0.24550000  0.91790000  0.53940000  1.0
  H  H190  1  0.31220000  0.93460000  0.98580000  1.0
  H  H191  1  0.29420000  0.85100000  0.48960000  1.0
  H  H192  1  0.97500000  0.16200000  0.54560000  1.0
  H  H193  1  0.98130000  0.11640000  0.39390000  1.0
  H  H194  1  0.00160000  0.66590000  0.89640000  1.0
  H  H195  1  0.32150000  0.82500000  0.25940000  1.0
  H  H196  1  0.27670000  0.81110000  0.16100000  1.0
  H  H197  1  0.13880000  0.88880000  0.34460000  1.0
  H  H198  1  0.11420000  0.70820000  0.16620000  1.0
  H  H199  1  0.22840000  0.93140000  0.65660000  1.0
  H  H200  1  0.16400000  0.72500000  0.26400000  1.0
  H  H201  1  0.87760000  0.23360000  0.49510000  1.0
  H  H202  1  0.27730000  0.92120000  0.75530000  1.0
  H  H203  1  0.11630000  0.79670000  0.88640000  1.0
  H  H204  1  0.09530000  0.08730000  0.66870000  1.0
  H  H205  1  0.90210000  0.54700000  0.00100000  1.0
  H  H206  1  0.15180000  0.07570000  0.76710000  1.0
  H  H207  1  0.16600000  0.87010000  0.83980000  1.0
  C  C208  1  0.62780000  0.47600000  0.08782000  1.0
  C  C209  1  0.42270000  0.90040000  0.39260000  1.0
  C  C210  1  0.65380000  0.71970000  0.50129000  1.0
  C  C211  1  0.62800000  0.56160000  0.91130000  1.0
  C  C212  1  0.62800000  0.50700000  0.00244000  1.0
  C  C213  1  0.48210000  0.88720000  0.50940000  1.0
  C  C214  1  0.40310000  0.31690000  0.88920000  1.0
  C  C215  1  0.74340000  0.63350000  0.49629000  1.0
  C  C216  1  0.57530000  0.80070000  0.50720000  1.0
  C  C217  1  0.65990000  0.55230000  0.97032000  1.0
  C  C218  1  0.72290000  0.58650000  0.99940000  1.0
  C  C219  1  0.77190000  0.59270000  0.46560000  1.0
  C  C220  1  0.75170000  0.62660000  0.96920000  1.0
  C  C221  1  0.45730000  0.33410000  0.00560000  1.0
  C  C222  1  0.65830000  0.48620000  0.15180000  1.0
  C  C223  1  0.46090000  0.36100000  0.91560000  1.0
  C  C224  1  0.68370000  0.67510000  0.46686000  1.0
  C  C225  1  0.69020000  0.74260000  0.65190000  1.0
  C  C226  1  0.48230000  0.85760000  0.41865000  1.0
  C  C227  1  0.54980000  0.42280000  0.00565000  1.0
  C  C228  1  0.77930000  0.69870000  0.74030000  1.0
  C  C229  1  0.75270000  0.70700000  0.68110000  1.0
  C  C230  1  0.66100000  0.60420000  0.88440000  1.0
  C  C231  1  0.65650000  0.76800000  0.68410000  1.0
  C  C232  1  0.71220000  0.53800000  0.17830000  1.0
  C  C233  1  0.68690000  0.75730000  0.74290000  1.0
  C  C234  1  0.39890000  0.29060000  0.97470000  1.0
  C  C235  1  0.65830000  0.75220000  0.58790000  1.0
  C  C236  1  0.74140000  0.54340000  0.23770000  1.0
  C  C237  1  0.51270000  0.85020000  0.47797000  1.0
  C  C238  1  0.65560000  0.67460000  0.40750000  1.0
  C  C239  1  0.48910000  0.37200000  0.97511000  1.0
  C  C240  1  0.63350000  0.44500000  0.18530000  1.0
  C  C241  1  0.42230000  0.92860000  0.47970000  1.0
  C  C242  1  0.66750000  0.45350000  0.24450000  1.0
  C  C243  1  0.68640000  0.63120000  0.37990000  1.0
  C  C244  1  0.12780000  0.97600000  0.08782000  1.0
  C  C245  1  0.92270000  0.40040000  0.39260000  1.0
  C  C246  1  0.15380000  0.21970000  0.50129000  1.0
  C  C247  1  0.12800000  0.06160000  0.91130000  1.0
  C  C248  1  0.12800000  0.00700000  0.00244000  1.0
  C  C249  1  0.98210000  0.38720000  0.50940000  1.0
  C  C250  1  0.90310000  0.81690000  0.88920000  1.0
  C  C251  1  0.24340000  0.13350000  0.49629000  1.0
  C  C252  1  0.07530000  0.30070000  0.50720000  1.0
  C  C253  1  0.15990000  0.05230000  0.97032000  1.0
  C  C254  1  0.22290000  0.08650000  0.99940000  1.0
  C  C255  1  0.27190000  0.09270000  0.46560000  1.0
  C  C256  1  0.25170000  0.12660000  0.96920000  1.0
  C  C257  1  0.95730000  0.83410000  0.00560000  1.0
  C  C258  1  0.15830000  0.98620000  0.15180000  1.0
  C  C259  1  0.96090000  0.86100000  0.91560000  1.0
  C  C260  1  0.18370000  0.17510000  0.46686000  1.0
  C  C261  1  0.19020000  0.24260000  0.65190000  1.0
  C  C262  1  0.98230000  0.35760000  0.41865000  1.0
  C  C263  1  0.04980000  0.92280000  0.00565000  1.0
  C  C264  1  0.27930000  0.19870000  0.74030000  1.0
  C  C265  1  0.25270000  0.20700000  0.68110000  1.0
  C  C266  1  0.16100000  0.10420000  0.88440000  1.0
  C  C267  1  0.15650000  0.26800000  0.68410000  1.0
  C  C268  1  0.21220000  0.03800000  0.17830000  1.0
  C  C269  1  0.18690000  0.25730000  0.74290000  1.0
  C  C270  1  0.89890000  0.79060000  0.97470000  1.0
  C  C271  1  0.15830000  0.25220000  0.58790000  1.0
  C  C272  1  0.24140000  0.04340000  0.23770000  1.0
  C  C273  1  0.01270000  0.35020000  0.47797000  1.0
  C  C274  1  0.15560000  0.17460000  0.40750000  1.0
  C  C275  1  0.98910000  0.87200000  0.97511000  1.0
  C  C276  1  0.13350000  0.94500000  0.18530000  1.0
  C  C277  1  0.92230000  0.42860000  0.47970000  1.0
  C  C278  1  0.16750000  0.95350000  0.24450000  1.0
  C  C279  1  0.18640000  0.13120000  0.37990000  1.0
  C  C280  1  0.37220000  0.47600000  0.41218000  1.0
  C  C281  1  0.57730000  0.90040000  0.10740000  1.0
  C  C282  1  0.34620000  0.71970000  0.99871000  1.0
  C  C283  1  0.37200000  0.56160000  0.58870000  1.0
  C  C284  1  0.37200000  0.50700000  0.49756000  1.0
  C  C285  1  0.51790000  0.88720000  0.99060000  1.0
  C  C286  1  0.59690000  0.31690000  0.61080000  1.0
  C  C287  1  0.25660000  0.63350000  0.00371000  1.0
  C  C288  1  0.42470000  0.80070000  0.99280000  1.0
  C  C289  1  0.34010000  0.55230000  0.52968000  1.0
  C  C290  1  0.27710000  0.58650000  0.50060000  1.0
  C  C291  1  0.22810000  0.59270000  0.03440000  1.0
  C  C292  1  0.24830000  0.62660000  0.53080000  1.0
  C  C293  1  0.54270000  0.33410000  0.49440000  1.0
  C  C294  1  0.34170000  0.48620000  0.34820000  1.0
  C  C295  1  0.53910000  0.36100000  0.58440000  1.0
  C  C296  1  0.31630000  0.67510000  0.03314000  1.0
  C  C297  1  0.30980000  0.74260000  0.84810000  1.0
  C  C298  1  0.51770000  0.85760000  0.08135000  1.0
  C  C299  1  0.45020000  0.42280000  0.49435000  1.0
  C  C300  1  0.22070000  0.69870000  0.75970000  1.0
  C  C301  1  0.24730000  0.70700000  0.81890000  1.0
  C  C302  1  0.33900000  0.60420000  0.61560000  1.0
  C  C303  1  0.34350000  0.76800000  0.81590000  1.0
  C  C304  1  0.28780000  0.53800000  0.32170000  1.0
  C  C305  1  0.31310000  0.75730000  0.75710000  1.0
  C  C306  1  0.60110000  0.29060000  0.52530000  1.0
  C  C307  1  0.34170000  0.75220000  0.91210000  1.0
  C  C308  1  0.25860000  0.54340000  0.26230000  1.0
  C  C309  1  0.48730000  0.85020000  0.02203000  1.0
  C  C310  1  0.34440000  0.67460000  0.09250000  1.0
  C  C311  1  0.51090000  0.37200000  0.52489000  1.0
  C  C312  1  0.36650000  0.44500000  0.31470000  1.0
  C  C313  1  0.57770000  0.92860000  0.02030000  1.0
  C  C314  1  0.33250000  0.45350000  0.25550000  1.0
  C  C315  1  0.31360000  0.63120000  0.12010000  1.0
  C  C316  1  0.87220000  0.97600000  0.41218000  1.0
  C  C317  1  0.07730000  0.40040000  0.10740000  1.0
  C  C318  1  0.84620000  0.21970000  0.99871000  1.0
  C  C319  1  0.87200000  0.06160000  0.58870000  1.0
  C  C320  1  0.87200000  0.00700000  0.49756000  1.0
  C  C321  1  0.01790000  0.38720000  0.99060000  1.0
  C  C322  1  0.09690000  0.81690000  0.61080000  1.0
  C  C323  1  0.75660000  0.13350000  0.00371000  1.0
  C  C324  1  0.92470000  0.30070000  0.99280000  1.0
  C  C325  1  0.84010000  0.05230000  0.52968000  1.0
  C  C326  1  0.77710000  0.08650000  0.50060000  1.0
  C  C327  1  0.72810000  0.09270000  0.03440000  1.0
  C  C328  1  0.74830000  0.12660000  0.53080000  1.0
  C  C329  1  0.04270000  0.83410000  0.49440000  1.0
  C  C330  1  0.84170000  0.98620000  0.34820000  1.0
  C  C331  1  0.03910000  0.86100000  0.58440000  1.0
  C  C332  1  0.81630000  0.17510000  0.03314000  1.0
  C  C333  1  0.80980000  0.24260000  0.84810000  1.0
  C  C334  1  0.01770000  0.35760000  0.08135000  1.0
  C  C335  1  0.95020000  0.92280000  0.49435000  1.0
  C  C336  1  0.72070000  0.19870000  0.75970000  1.0
  C  C337  1  0.74730000  0.20700000  0.81890000  1.0
  C  C338  1  0.83900000  0.10420000  0.61560000  1.0
  C  C339  1  0.84350000  0.26800000  0.81590000  1.0
  C  C340  1  0.78780000  0.03800000  0.32170000  1.0
  C  C341  1  0.81310000  0.25730000  0.75710000  1.0
  C  C342  1  0.10110000  0.79060000  0.52530000  1.0
  C  C343  1  0.84170000  0.25220000  0.91210000  1.0
  C  C344  1  0.75860000  0.04340000  0.26230000  1.0
  C  C345  1  0.98730000  0.35020000  0.02203000  1.0
  C  C346  1  0.84440000  0.17460000  0.09250000  1.0
  C  C347  1  0.01090000  0.87200000  0.52489000  1.0
  C  C348  1  0.86650000  0.94500000  0.31470000  1.0
  C  C349  1  0.07770000  0.42860000  0.02030000  1.0
  C  C350  1  0.83250000  0.95350000  0.25550000  1.0
  C  C351  1  0.81360000  0.13120000  0.12010000  1.0
  C  C352  1  0.37220000  0.52400000  0.91218000  1.0
  C  C353  1  0.57730000  0.09960000  0.60740000  1.0
  C  C354  1  0.34620000  0.28030000  0.49871000  1.0
  C  C355  1  0.37200000  0.43840000  0.08870000  1.0
  C  C356  1  0.37200000  0.49300000  0.99756000  1.0
  C  C357  1  0.51790000  0.11280000  0.49060000  1.0
  C  C358  1  0.59690000  0.68310000  0.11080000  1.0
  C  C359  1  0.25660000  0.36650000  0.50371000  1.0
  C  C360  1  0.42470000  0.19930000  0.49280000  1.0
  C  C361  1  0.34010000  0.44770000  0.02968000  1.0
  C  C362  1  0.27710000  0.41350000  0.00060000  1.0
  C  C363  1  0.22810000  0.40730000  0.53440000  1.0
  C  C364  1  0.24830000  0.37340000  0.03080000  1.0
  C  C365  1  0.54270000  0.66590000  0.99440000  1.0
  C  C366  1  0.34170000  0.51380000  0.84820000  1.0
  C  C367  1  0.53910000  0.63900000  0.08440000  1.0
  C  C368  1  0.31630000  0.32490000  0.53314000  1.0
  C  C369  1  0.30980000  0.25740000  0.34810000  1.0
  C  C370  1  0.51770000  0.14240000  0.58135000  1.0
  C  C371  1  0.45020000  0.57720000  0.99435000  1.0
  C  C372  1  0.22070000  0.30130000  0.25970000  1.0
  C  C373  1  0.24730000  0.29300000  0.31890000  1.0
  C  C374  1  0.33900000  0.39580000  0.11560000  1.0
  C  C375  1  0.34350000  0.23200000  0.31590000  1.0
  C  C376  1  0.28780000  0.46200000  0.82170000  1.0
  C  C377  1  0.31310000  0.24270000  0.25710000  1.0
  C  C378  1  0.60110000  0.70940000  0.02530000  1.0
  C  C379  1  0.34170000  0.24780000  0.41210000  1.0
  C  C380  1  0.25860000  0.45660000  0.76230000  1.0
  C  C381  1  0.48730000  0.14980000  0.52203000  1.0
  C  C382  1  0.34440000  0.32540000  0.59250000  1.0
  C  C383  1  0.51090000  0.62800000  0.02489000  1.0
  C  C384  1  0.36650000  0.55500000  0.81470000  1.0
  C  C385  1  0.57770000  0.07140000  0.52030000  1.0
  C  C386  1  0.33250000  0.54650000  0.75550000  1.0
  C  C387  1  0.31360000  0.36880000  0.62010000  1.0
  C  C388  1  0.87220000  0.02400000  0.91218000  1.0
  C  C389  1  0.07730000  0.59960000  0.60740000  1.0
  C  C390  1  0.84620000  0.78030000  0.49871000  1.0
  C  C391  1  0.87200000  0.93840000  0.08870000  1.0
  C  C392  1  0.87200000  0.99300000  0.99756000  1.0
  C  C393  1  0.01790000  0.61280000  0.49060000  1.0
  C  C394  1  0.09690000  0.18310000  0.11080000  1.0
  C  C395  1  0.75660000  0.86650000  0.50371000  1.0
  C  C396  1  0.92470000  0.69930000  0.49280000  1.0
  C  C397  1  0.84010000  0.94770000  0.02968000  1.0
  C  C398  1  0.77710000  0.91350000  0.00060000  1.0
  C  C399  1  0.72810000  0.90730000  0.53440000  1.0
  C  C400  1  0.74830000  0.87340000  0.03080000  1.0
  C  C401  1  0.04270000  0.16590000  0.99440000  1.0
  C  C402  1  0.84170000  0.01380000  0.84820000  1.0
  C  C403  1  0.03910000  0.13900000  0.08440000  1.0
  C  C404  1  0.81630000  0.82490000  0.53314000  1.0
  C  C405  1  0.80980000  0.75740000  0.34810000  1.0
  C  C406  1  0.01770000  0.64240000  0.58135000  1.0
  C  C407  1  0.95020000  0.07720000  0.99435000  1.0
  C  C408  1  0.72070000  0.80130000  0.25970000  1.0
  C  C409  1  0.74730000  0.79300000  0.31890000  1.0
  C  C410  1  0.83900000  0.89580000  0.11560000  1.0
  C  C411  1  0.84350000  0.73200000  0.31590000  1.0
  C  C412  1  0.78780000  0.96200000  0.82170000  1.0
  C  C413  1  0.81310000  0.74270000  0.25710000  1.0
  C  C414  1  0.10110000  0.20940000  0.02530000  1.0
  C  C415  1  0.84170000  0.74780000  0.41210000  1.0
  C  C416  1  0.75860000  0.95660000  0.76230000  1.0
  C  C417  1  0.98730000  0.64980000  0.52203000  1.0
  C  C418  1  0.84440000  0.82540000  0.59250000  1.0
  C  C419  1  0.01090000  0.12800000  0.02489000  1.0
  C  C420  1  0.86650000  0.05500000  0.81470000  1.0
  C  C421  1  0.07770000  0.57140000  0.52030000  1.0
  C  C422  1  0.83250000  0.04650000  0.75550000  1.0
  C  C423  1  0.81360000  0.86880000  0.62010000  1.0
  C  C424  1  0.62780000  0.52400000  0.58782000  1.0
  C  C425  1  0.42270000  0.09960000  0.89260000  1.0
  C  C426  1  0.65380000  0.28030000  0.00129000  1.0
  C  C427  1  0.62800000  0.43840000  0.41130000  1.0
  C  C428  1  0.62800000  0.49300000  0.50244000  1.0
  C  C429  1  0.48210000  0.11280000  0.00940000  1.0
  C  C430  1  0.40310000  0.68310000  0.38920000  1.0
  C  C431  1  0.74340000  0.36650000  0.99629000  1.0
  C  C432  1  0.57530000  0.19930000  0.00720000  1.0
  C  C433  1  0.65990000  0.44770000  0.47032000  1.0
  C  C434  1  0.72290000  0.41350000  0.49940000  1.0
  C  C435  1  0.77190000  0.40730000  0.96560000  1.0
  C  C436  1  0.75170000  0.37340000  0.46920000  1.0
  C  C437  1  0.45730000  0.66590000  0.50560000  1.0
  C  C438  1  0.65830000  0.51380000  0.65180000  1.0
  C  C439  1  0.46090000  0.63900000  0.41560000  1.0
  C  C440  1  0.68370000  0.32490000  0.96686000  1.0
  C  C441  1  0.69020000  0.25740000  0.15190000  1.0
  C  C442  1  0.48230000  0.14240000  0.91865000  1.0
  C  C443  1  0.54980000  0.57720000  0.50565000  1.0
  C  C444  1  0.77930000  0.30130000  0.24030000  1.0
  C  C445  1  0.75270000  0.29300000  0.18110000  1.0
  C  C446  1  0.66100000  0.39580000  0.38440000  1.0
  C  C447  1  0.65650000  0.23200000  0.18410000  1.0
  C  C448  1  0.71220000  0.46200000  0.67830000  1.0
  C  C449  1  0.68690000  0.24270000  0.24290000  1.0
  C  C450  1  0.39890000  0.70940000  0.47470000  1.0
  C  C451  1  0.65830000  0.24780000  0.08790000  1.0
  C  C452  1  0.74140000  0.45660000  0.73770000  1.0
  C  C453  1  0.51270000  0.14980000  0.97797000  1.0
  C  C454  1  0.65560000  0.32540000  0.90750000  1.0
  C  C455  1  0.48910000  0.62800000  0.47511000  1.0
  C  C456  1  0.63350000  0.55500000  0.68530000  1.0
  C  C457  1  0.42230000  0.07140000  0.97970000  1.0
  C  C458  1  0.66750000  0.54650000  0.74450000  1.0
  C  C459  1  0.68640000  0.36880000  0.87990000  1.0
  C  C460  1  0.12780000  0.02400000  0.58782000  1.0
  C  C461  1  0.92270000  0.59960000  0.89260000  1.0
  C  C462  1  0.15380000  0.78030000  0.00129000  1.0
  C  C463  1  0.12800000  0.93840000  0.41130000  1.0
  C  C464  1  0.12800000  0.99300000  0.50244000  1.0
  C  C465  1  0.98210000  0.61280000  0.00940000  1.0
  C  C466  1  0.90310000  0.18310000  0.38920000  1.0
  C  C467  1  0.24340000  0.86650000  0.99629000  1.0
  C  C468  1  0.07530000  0.69930000  0.00720000  1.0
  C  C469  1  0.15990000  0.94770000  0.47032000  1.0
  C  C470  1  0.22290000  0.91350000  0.49940000  1.0
  C  C471  1  0.27190000  0.90730000  0.96560000  1.0
  C  C472  1  0.25170000  0.87340000  0.46920000  1.0
  C  C473  1  0.95730000  0.16590000  0.50560000  1.0
  C  C474  1  0.15830000  0.01380000  0.65180000  1.0
  C  C475  1  0.96090000  0.13900000  0.41560000  1.0
  C  C476  1  0.18370000  0.82490000  0.96686000  1.0
  C  C477  1  0.19020000  0.75740000  0.15190000  1.0
  C  C478  1  0.98230000  0.64240000  0.91865000  1.0
  C  C479  1  0.04980000  0.07720000  0.50565000  1.0
  C  C480  1  0.27930000  0.80130000  0.24030000  1.0
  C  C481  1  0.25270000  0.79300000  0.18110000  1.0
  C  C482  1  0.16100000  0.89580000  0.38440000  1.0
  C  C483  1  0.15650000  0.73200000  0.18410000  1.0
  C  C484  1  0.21220000  0.96200000  0.67830000  1.0
  C  C485  1  0.18690000  0.74270000  0.24290000  1.0
  C  C486  1  0.89890000  0.20940000  0.47470000  1.0
  C  C487  1  0.15830000  0.74780000  0.08790000  1.0
  C  C488  1  0.24140000  0.95660000  0.73770000  1.0
  C  C489  1  0.01270000  0.64980000  0.97797000  1.0
  C  C490  1  0.15560000  0.82540000  0.90750000  1.0
  C  C491  1  0.98910000  0.12800000  0.47511000  1.0
  C  C492  1  0.13350000  0.05500000  0.68530000  1.0
  C  C493  1  0.92230000  0.57140000  0.97970000  1.0
  C  C494  1  0.16750000  0.04650000  0.74450000  1.0
  C  C495  1  0.18640000  0.86880000  0.87990000  1.0
  N  N496  1  0.37154000  0.28130000  0.91767000  1.0
  N  N497  1  0.72209000  0.63560000  0.91184000  1.0
  N  N498  1  0.72090000  0.50030000  0.27143000  1.0
  N  N499  1  0.57474000  0.46100000  0.97288000  1.0
  N  N500  1  0.65628000  0.51820000  0.05968000  1.0
  N  N501  1  0.57504000  0.42750000  0.06315000  1.0
  N  N502  1  0.74411000  0.59050000  0.40749000  1.0
  N  N503  1  0.74680000  0.72340000  0.77159000  1.0
  N  N504  1  0.39200000  0.93550000  0.42218000  1.0
  N  N505  1  0.59761000  0.76040000  0.47329000  1.0
  N  N506  1  0.68682000  0.71240000  0.55894000  1.0
  N  N507  1  0.60415000  0.79890000  0.56459000  1.0
  N  N508  1  0.87154000  0.78130000  0.91767000  1.0
  N  N509  1  0.22209000  0.13560000  0.91184000  1.0
  N  N510  1  0.22090000  0.00030000  0.27143000  1.0
  N  N511  1  0.07474000  0.96100000  0.97288000  1.0
  N  N512  1  0.15628000  0.01820000  0.05968000  1.0
  N  N513  1  0.07504000  0.92750000  0.06315000  1.0
  N  N514  1  0.24411000  0.09050000  0.40749000  1.0
  N  N515  1  0.24680000  0.22340000  0.77159000  1.0
  N  N516  1  0.89200000  0.43550000  0.42218000  1.0
  N  N517  1  0.09761000  0.26040000  0.47329000  1.0
  N  N518  1  0.18682000  0.21240000  0.55894000  1.0
  N  N519  1  0.10415000  0.29890000  0.56459000  1.0
  N  N520  1  0.62846000  0.28130000  0.58233000  1.0
  N  N521  1  0.27791000  0.63560000  0.58816000  1.0
  N  N522  1  0.27910000  0.50030000  0.22857000  1.0
  N  N523  1  0.42526000  0.46100000  0.52712000  1.0
  N  N524  1  0.34372000  0.51820000  0.44032000  1.0
  N  N525  1  0.42496000  0.42750000  0.43685000  1.0
  N  N526  1  0.25589000  0.59050000  0.09251000  1.0
  N  N527  1  0.25320000  0.72340000  0.72841000  1.0
  N  N528  1  0.60800000  0.93550000  0.07782000  1.0
  N  N529  1  0.40239000  0.76040000  0.02671000  1.0
  N  N530  1  0.31318000  0.71240000  0.94106000  1.0
  N  N531  1  0.39585000  0.79890000  0.93541000  1.0
  N  N532  1  0.12846000  0.78130000  0.58233000  1.0
  N  N533  1  0.77791000  0.13560000  0.58816000  1.0
  N  N534  1  0.77910000  0.00030000  0.22857000  1.0
  N  N535  1  0.92526000  0.96100000  0.52712000  1.0
  N  N536  1  0.84372000  0.01820000  0.44032000  1.0
  N  N537  1  0.92496000  0.92750000  0.43685000  1.0
  N  N538  1  0.75589000  0.09050000  0.09251000  1.0
  N  N539  1  0.75320000  0.22340000  0.72841000  1.0
  N  N540  1  0.10800000  0.43550000  0.07782000  1.0
  N  N541  1  0.90239000  0.26040000  0.02671000  1.0
  N  N542  1  0.81318000  0.21240000  0.94106000  1.0
  N  N543  1  0.89585000  0.29890000  0.93541000  1.0
  N  N544  1  0.62846000  0.71870000  0.08233000  1.0
  N  N545  1  0.27791000  0.36440000  0.08816000  1.0
  N  N546  1  0.27910000  0.49970000  0.72857000  1.0
  N  N547  1  0.42526000  0.53900000  0.02712000  1.0
  N  N548  1  0.34372000  0.48180000  0.94032000  1.0
  N  N549  1  0.42496000  0.57250000  0.93685000  1.0
  N  N550  1  0.25589000  0.40950000  0.59251000  1.0
  N  N551  1  0.25320000  0.27660000  0.22841000  1.0
  N  N552  1  0.60800000  0.06450000  0.57782000  1.0
  N  N553  1  0.40239000  0.23960000  0.52671000  1.0
  N  N554  1  0.31318000  0.28760000  0.44106000  1.0
  N  N555  1  0.39585000  0.20110000  0.43541000  1.0
  N  N556  1  0.12846000  0.21870000  0.08233000  1.0
  N  N557  1  0.77791000  0.86440000  0.08816000  1.0
  N  N558  1  0.77910000  0.99970000  0.72857000  1.0
  N  N559  1  0.92526000  0.03900000  0.02712000  1.0
  N  N560  1  0.84372000  0.98180000  0.94032000  1.0
  N  N561  1  0.92496000  0.07250000  0.93685000  1.0
  N  N562  1  0.75589000  0.90950000  0.59251000  1.0
  N  N563  1  0.75320000  0.77660000  0.22841000  1.0
  N  N564  1  0.10800000  0.56450000  0.57782000  1.0
  N  N565  1  0.90239000  0.73960000  0.52671000  1.0
  N  N566  1  0.81318000  0.78760000  0.44106000  1.0
  N  N567  1  0.89585000  0.70110000  0.43541000  1.0
  N  N568  1  0.37154000  0.71870000  0.41767000  1.0
  N  N569  1  0.72209000  0.36440000  0.41184000  1.0
  N  N570  1  0.72090000  0.49970000  0.77143000  1.0
  N  N571  1  0.57474000  0.53900000  0.47288000  1.0
  N  N572  1  0.65628000  0.48180000  0.55968000  1.0
  N  N573  1  0.57504000  0.57250000  0.56315000  1.0
  N  N574  1  0.74411000  0.40950000  0.90749000  1.0
  N  N575  1  0.74680000  0.27660000  0.27159000  1.0
  N  N576  1  0.39200000  0.06450000  0.92218000  1.0
  N  N577  1  0.59761000  0.23960000  0.97329000  1.0
  N  N578  1  0.68682000  0.28760000  0.05894000  1.0
  N  N579  1  0.60415000  0.20110000  0.06459000  1.0
  N  N580  1  0.87154000  0.21870000  0.41767000  1.0
  N  N581  1  0.22209000  0.86440000  0.41184000  1.0
  N  N582  1  0.22090000  0.99970000  0.77143000  1.0
  N  N583  1  0.07474000  0.03900000  0.47288000  1.0
  N  N584  1  0.15628000  0.98180000  0.55968000  1.0
  N  N585  1  0.07504000  0.07250000  0.56315000  1.0
  N  N586  1  0.24411000  0.90950000  0.90749000  1.0
  N  N587  1  0.24680000  0.77660000  0.27159000  1.0
  N  N588  1  0.89200000  0.56450000  0.92218000  1.0
  N  N589  1  0.09761000  0.73960000  0.97329000  1.0
  N  N590  1  0.18682000  0.78760000  0.05894000  1.0
  N  N591  1  0.10415000  0.70110000  0.06459000  1.0
