# generated using pymatgen
data_Cd3H6(C2O3)4
_symmetry_space_group_name_H-M   'P 1'
_cell_length_a   9.44170000
_cell_length_b   13.70050000
_cell_length_c   15.65230000
_cell_angle_alpha   90.00000000
_cell_angle_beta   90.00000000
_cell_angle_gamma   90.00000000
_symmetry_Int_Tables_number   1
_chemical_formula_structural   Cd3H6(C2O3)4
_chemical_formula_sum   'Cd12 H24 C32 O48'
_cell_volume   2024.71908863
_cell_formula_units_Z   4
loop_
 _symmetry_equiv_pos_site_id
 _symmetry_equiv_pos_as_xyz
  1  'x, y, z'
loop_
 _atom_site_type_symbol
 _atom_site_label
 _atom_site_symmetry_multiplicity
 _atom_site_fract_x
 _atom_site_fract_y
 _atom_site_fract_z
 _atom_site_occupancy
  Cd  Cd0  1  0.60374000  0.86779000  0.50267000  1.0
  Cd  Cd1  1  0.86587000  0.99871000  0.38738000  1.0
  Cd  Cd2  1  0.79141000  0.73167000  0.77736000  1.0
  Cd  Cd3  1  0.60374000  0.13221000  0.49733000  1.0
  Cd  Cd4  1  0.86587000  0.00129000  0.61262000  1.0
  Cd  Cd5  1  0.79141000  0.26833000  0.22264000  1.0
  Cd  Cd6  1  0.39626000  0.63221000  0.00267000  1.0
  Cd  Cd7  1  0.13413000  0.50129000  0.88738000  1.0
  Cd  Cd8  1  0.20859000  0.76833000  0.27736000  1.0
  Cd  Cd9  1  0.39626000  0.36779000  0.99733000  1.0
  Cd  Cd10  1  0.13413000  0.49871000  0.11262000  1.0
  Cd  Cd11  1  0.20859000  0.23167000  0.72264000  1.0
  H  H12  1  0.66600000  0.68100000  0.45000000  1.0
  H  H13  1  0.80900000  0.91100000  0.24300000  1.0
  H  H14  1  0.89150000  0.65630000  0.49080000  1.0
  H  H15  1  0.00670000  0.80800000  0.53780000  1.0
  H  H16  1  0.56640000  0.96350000  0.20180000  1.0
  H  H17  1  0.47470000  0.05070000  0.32870000  1.0
  H  H18  1  0.66600000  0.31900000  0.55000000  1.0
  H  H19  1  0.80900000  0.08900000  0.75700000  1.0
  H  H20  1  0.89150000  0.34370000  0.50920000  1.0
  H  H21  1  0.00670000  0.19200000  0.46220000  1.0
  H  H22  1  0.56640000  0.03650000  0.79820000  1.0
  H  H23  1  0.47470000  0.94930000  0.67130000  1.0
  H  H24  1  0.33400000  0.81900000  0.95000000  1.0
  H  H25  1  0.19100000  0.58900000  0.74300000  1.0
  H  H26  1  0.10850000  0.84370000  0.99080000  1.0
  H  H27  1  0.99330000  0.69200000  0.03780000  1.0
  H  H28  1  0.43360000  0.53650000  0.70180000  1.0
  H  H29  1  0.52530000  0.44930000  0.82870000  1.0
  H  H30  1  0.33400000  0.18100000  0.05000000  1.0
  H  H31  1  0.19100000  0.41100000  0.25700000  1.0
  H  H32  1  0.10850000  0.15630000  0.00920000  1.0
  H  H33  1  0.99330000  0.30800000  0.96220000  1.0
  H  H34  1  0.43360000  0.46350000  0.29820000  1.0
  H  H35  1  0.52530000  0.55070000  0.17130000  1.0
  C  C36  1  0.78820000  0.72070000  0.59550000  1.0
  C  C37  1  0.83810000  0.71780000  0.50270000  1.0
  C  C38  1  0.93480000  0.80830000  0.49080000  1.0
  C  C39  1  0.01250000  0.79950000  0.40690000  1.0
  C  C40  1  0.69590000  0.08080000  0.23910000  1.0
  C  C41  1  0.62600000  0.98150000  0.25220000  1.0
  C  C42  1  0.53400000  0.99060000  0.33430000  1.0
  C  C43  1  0.43480000  0.90350000  0.33750000  1.0
  C  C44  1  0.78820000  0.27930000  0.40450000  1.0
  C  C45  1  0.83810000  0.28220000  0.49730000  1.0
  C  C46  1  0.93480000  0.19170000  0.50920000  1.0
  C  C47  1  0.01250000  0.20050000  0.59310000  1.0
  C  C48  1  0.69590000  0.91920000  0.76090000  1.0
  C  C49  1  0.62600000  0.01850000  0.74780000  1.0
  C  C50  1  0.53400000  0.00940000  0.66570000  1.0
  C  C51  1  0.43480000  0.09650000  0.66250000  1.0
  C  C52  1  0.21180000  0.77930000  0.09550000  1.0
  C  C53  1  0.16190000  0.78220000  0.00270000  1.0
  C  C54  1  0.06520000  0.69170000  0.99080000  1.0
  C  C55  1  0.98750000  0.70050000  0.90690000  1.0
  C  C56  1  0.30410000  0.41920000  0.73910000  1.0
  C  C57  1  0.37400000  0.51850000  0.75220000  1.0
  C  C58  1  0.46600000  0.50940000  0.83430000  1.0
  C  C59  1  0.56520000  0.59650000  0.83750000  1.0
  C  C60  1  0.21180000  0.22070000  0.90450000  1.0
  C  C61  1  0.16190000  0.21780000  0.99730000  1.0
  C  C62  1  0.06520000  0.30830000  0.00920000  1.0
  C  C63  1  0.98750000  0.29950000  0.09310000  1.0
  C  C64  1  0.30410000  0.58080000  0.26090000  1.0
  C  C65  1  0.37400000  0.48150000  0.24780000  1.0
  C  C66  1  0.46600000  0.49060000  0.16570000  1.0
  C  C67  1  0.56520000  0.40350000  0.16250000  1.0
  O  O68  1  0.67490000  0.76030000  0.61410000  1.0
  O  O69  1  0.87610000  0.68960000  0.65150000  1.0
  O  O70  1  0.72360000  0.72810000  0.44570000  1.0
  O  O71  1  0.85380000  0.89260000  0.49890000  1.0
  O  O72  1  0.00360000  0.86440000  0.35030000  1.0
  O  O73  1  0.09170000  0.72500000  0.39640000  1.0
  O  O74  1  0.81810000  0.09560000  0.26920000  1.0
  O  O75  1  0.62680000  0.14550000  0.20000000  1.0
  O  O76  1  0.72960000  0.90850000  0.26900000  1.0
  O  O77  1  0.61680000  0.00080000  0.40660000  1.0
  O  O78  1  0.44170000  0.84210000  0.39650000  1.0
  O  O79  1  0.34490000  0.89930000  0.27750000  1.0
  O  O80  1  0.67490000  0.23970000  0.38590000  1.0
  O  O81  1  0.87610000  0.31040000  0.34850000  1.0
  O  O82  1  0.72360000  0.27190000  0.55430000  1.0
  O  O83  1  0.85380000  0.10740000  0.50110000  1.0
  O  O84  1  0.00360000  0.13560000  0.64970000  1.0
  O  O85  1  0.09170000  0.27500000  0.60360000  1.0
  O  O86  1  0.81810000  0.90440000  0.73080000  1.0
  O  O87  1  0.62680000  0.85450000  0.80000000  1.0
  O  O88  1  0.72960000  0.09150000  0.73100000  1.0
  O  O89  1  0.61680000  0.99920000  0.59340000  1.0
  O  O90  1  0.44170000  0.15790000  0.60350000  1.0
  O  O91  1  0.34490000  0.10070000  0.72250000  1.0
  O  O92  1  0.32510000  0.73970000  0.11410000  1.0
  O  O93  1  0.12390000  0.81040000  0.15150000  1.0
  O  O94  1  0.27640000  0.77190000  0.94570000  1.0
  O  O95  1  0.14620000  0.60740000  0.99890000  1.0
  O  O96  1  0.99640000  0.63560000  0.85030000  1.0
  O  O97  1  0.90830000  0.77500000  0.89640000  1.0
  O  O98  1  0.18190000  0.40440000  0.76920000  1.0
  O  O99  1  0.37320000  0.35450000  0.70000000  1.0
  O  O100  1  0.27040000  0.59150000  0.76900000  1.0
  O  O101  1  0.38320000  0.49920000  0.90660000  1.0
  O  O102  1  0.55830000  0.65790000  0.89650000  1.0
  O  O103  1  0.65510000  0.60070000  0.77750000  1.0
  O  O104  1  0.32510000  0.26030000  0.88590000  1.0
  O  O105  1  0.12390000  0.18960000  0.84850000  1.0
  O  O106  1  0.27640000  0.22810000  0.05430000  1.0
  O  O107  1  0.14620000  0.39260000  0.00110000  1.0
  O  O108  1  0.99640000  0.36440000  0.14970000  1.0
  O  O109  1  0.90830000  0.22500000  0.10360000  1.0
  O  O110  1  0.18190000  0.59560000  0.23080000  1.0
  O  O111  1  0.37320000  0.64550000  0.30000000  1.0
  O  O112  1  0.27040000  0.40850000  0.23100000  1.0
  O  O113  1  0.38320000  0.50080000  0.09340000  1.0
  O  O114  1  0.55830000  0.34210000  0.10350000  1.0
  O  O115  1  0.65510000  0.39930000  0.22250000  1.0
