# generated using pymatgen
data_AlH5C8O5
_symmetry_space_group_name_H-M   'P 1'
_cell_length_a   19.50420000
_cell_length_b   15.20140000
_cell_length_c   6.56930000
_cell_angle_alpha   90.00000000
_cell_angle_beta   104.18000000
_cell_angle_gamma   90.00000000
_symmetry_Int_Tables_number   1
_chemical_formula_structural   AlH5C8O5
_chemical_formula_sum   'Al8 H40 C64 O40'
_cell_volume   1888.39345911
_cell_formula_units_Z   8
loop_
 _symmetry_equiv_pos_site_id
 _symmetry_equiv_pos_as_xyz
  1  'x, y, z'
loop_
 _atom_site_type_symbol
 _atom_site_label
 _atom_site_symmetry_multiplicity
 _atom_site_fract_x
 _atom_site_fract_y
 _atom_site_fract_z
 _atom_site_occupancy
  Al  Al0  1  0.50030000  0.24370000  0.51080000  1.0
  Al  Al1  1  0.49970000  0.74370000  0.98920000  1.0
  Al  Al2  1  0.49970000  0.75630000  0.48920000  1.0
  Al  Al3  1  0.50030000  0.25630000  0.01080000  1.0
  Al  Al4  1  0.00000000  0.50000000  0.00000000  1.0
  Al  Al5  1  0.00000000  0.00000000  0.50000000  1.0
  Al  Al6  1  0.00000000  0.50000000  0.50000000  1.0
  Al  Al7  1  0.00000000  0.00000000  0.00000000  1.0
  H  H8  1  0.78950000  0.09399000  0.86510000  1.0
  H  H9  1  0.66720000  0.12510000  0.71860000  1.0
  H  H10  1  0.70620000  0.15493000  0.14440000  1.0
  H  H11  1  0.82830000  0.12390000  0.29140000  1.0
  H  H12  1  0.29080000  0.32170000  0.84910000  1.0
  H  H13  1  0.16810000  0.35450000  0.70660000  1.0
  H  H14  1  0.21270000  0.43100000  0.15920000  1.0
  H  H15  1  0.33610000  0.39790000  0.30330000  1.0
  H  H16  1  0.49500000  0.36060000  0.27900000  1.0
  H  H17  1  0.99300000  0.61020000  0.24500000  1.0
  H  H18  1  0.21050000  0.59399000  0.63490000  1.0
  H  H19  1  0.33280000  0.62510000  0.78140000  1.0
  H  H20  1  0.29380000  0.65493000  0.35560000  1.0
  H  H21  1  0.17170000  0.62390000  0.20860000  1.0
  H  H22  1  0.70920000  0.82170000  0.65090000  1.0
  H  H23  1  0.83190000  0.85450000  0.79340000  1.0
  H  H24  1  0.78730000  0.93100000  0.34080000  1.0
  H  H25  1  0.66390000  0.89790000  0.19670000  1.0
  H  H26  1  0.50500000  0.86060000  0.22100000  1.0
  H  H27  1  0.00700000  0.11020000  0.25500000  1.0
  H  H28  1  0.21050000  0.90601000  0.13490000  1.0
  H  H29  1  0.33280000  0.87490000  0.28140000  1.0
  H  H30  1  0.29380000  0.84507000  0.85560000  1.0
  H  H31  1  0.17170000  0.87610000  0.70860000  1.0
  H  H32  1  0.70920000  0.67830000  0.15090000  1.0
  H  H33  1  0.83190000  0.64550000  0.29340000  1.0
  H  H34  1  0.78730000  0.56900000  0.84080000  1.0
  H  H35  1  0.66390000  0.60210000  0.69670000  1.0
  H  H36  1  0.50500000  0.63940000  0.72100000  1.0
  H  H37  1  0.00700000  0.38980000  0.75500000  1.0
  H  H38  1  0.78950000  0.40601000  0.36510000  1.0
  H  H39  1  0.66720000  0.37490000  0.21860000  1.0
  H  H40  1  0.70620000  0.34507000  0.64440000  1.0
  H  H41  1  0.82830000  0.37610000  0.79140000  1.0
  H  H42  1  0.29080000  0.17830000  0.34910000  1.0
  H  H43  1  0.16810000  0.14550000  0.20660000  1.0
  H  H44  1  0.21270000  0.06900000  0.65920000  1.0
  H  H45  1  0.33610000  0.10210000  0.80330000  1.0
  H  H46  1  0.49500000  0.13940000  0.77900000  1.0
  H  H47  1  0.99300000  0.88980000  0.74500000  1.0
  C  C48  1  0.81980000  0.10662000  0.58950000  1.0
  C  C49  1  0.77270000  0.10664000  0.71540000  1.0
  C  C50  1  0.70070000  0.12479000  0.62810000  1.0
  C  C51  1  0.67570000  0.14239000  0.41760000  1.0
  C  C52  1  0.72300000  0.14221000  0.29360000  1.0
  C  C53  1  0.79480000  0.12424000  0.38110000  1.0
  C  C54  1  0.89540000  0.08731000  0.67500000  1.0
  C  C55  1  0.60090000  0.16242000  0.33010000  1.0
  C  C56  1  0.32370000  0.35710000  0.58960000  1.0
  C  C57  1  0.27500000  0.34440000  0.70670000  1.0
  C  C58  1  0.20280000  0.36360000  0.62200000  1.0
  C  C59  1  0.17990000  0.39517000  0.42140000  1.0
  C  C60  1  0.22870000  0.40830000  0.30190000  1.0
  C  C61  1  0.30100000  0.38900000  0.38750000  1.0
  C  C62  1  0.39850000  0.33603000  0.67850000  1.0
  C  C63  1  0.10480000  0.41529000  0.33560000  1.0
  C  C64  1  0.18020000  0.60662000  0.91050000  1.0
  C  C65  1  0.22730000  0.60664000  0.78460000  1.0
  C  C66  1  0.29930000  0.62479000  0.87190000  1.0
  C  C67  1  0.32430000  0.64239000  0.08240000  1.0
  C  C68  1  0.27700000  0.64221000  0.20640000  1.0
  C  C69  1  0.20520000  0.62424000  0.11890000  1.0
  C  C70  1  0.10460000  0.58731000  0.82500000  1.0
  C  C71  1  0.39910000  0.66242000  0.16990000  1.0
  C  C72  1  0.67630000  0.85710000  0.91040000  1.0
  C  C73  1  0.72500000  0.84440000  0.79330000  1.0
  C  C74  1  0.79720000  0.86360000  0.87800000  1.0
  C  C75  1  0.82010000  0.89517000  0.07860000  1.0
  C  C76  1  0.77130000  0.90830000  0.19810000  1.0
  C  C77  1  0.69900000  0.88900000  0.11250000  1.0
  C  C78  1  0.60150000  0.83603000  0.82150000  1.0
  C  C79  1  0.89520000  0.91529000  0.16440000  1.0
  C  C80  1  0.18020000  0.89338000  0.41050000  1.0
  C  C81  1  0.22730000  0.89336000  0.28460000  1.0
  C  C82  1  0.29930000  0.87521000  0.37190000  1.0
  C  C83  1  0.32430000  0.85761000  0.58240000  1.0
  C  C84  1  0.27700000  0.85779000  0.70640000  1.0
  C  C85  1  0.20520000  0.87576000  0.61890000  1.0
  C  C86  1  0.10460000  0.91269000  0.32500000  1.0
  C  C87  1  0.39910000  0.83758000  0.66990000  1.0
  C  C88  1  0.67630000  0.64290000  0.41040000  1.0
  C  C89  1  0.72500000  0.65560000  0.29330000  1.0
  C  C90  1  0.79720000  0.63640000  0.37800000  1.0
  C  C91  1  0.82010000  0.60483000  0.57860000  1.0
  C  C92  1  0.77130000  0.59170000  0.69810000  1.0
  C  C93  1  0.69900000  0.61100000  0.61250000  1.0
  C  C94  1  0.60150000  0.66397000  0.32150000  1.0
  C  C95  1  0.89520000  0.58471000  0.66440000  1.0
  C  C96  1  0.81980000  0.39338000  0.08950000  1.0
  C  C97  1  0.77270000  0.39336000  0.21540000  1.0
  C  C98  1  0.70070000  0.37521000  0.12810000  1.0
  C  C99  1  0.67570000  0.35761000  0.91760000  1.0
  C  C100  1  0.72300000  0.35779000  0.79360000  1.0
  C  C101  1  0.79480000  0.37576000  0.88110000  1.0
  C  C102  1  0.89540000  0.41269000  0.17500000  1.0
  C  C103  1  0.60090000  0.33758000  0.83010000  1.0
  C  C104  1  0.32370000  0.14290000  0.08960000  1.0
  C  C105  1  0.27500000  0.15560000  0.20670000  1.0
  C  C106  1  0.20280000  0.13640000  0.12200000  1.0
  C  C107  1  0.17990000  0.10483000  0.92140000  1.0
  C  C108  1  0.22870000  0.09170000  0.80190000  1.0
  C  C109  1  0.30100000  0.11100000  0.88750000  1.0
  C  C110  1  0.39850000  0.16397000  0.17850000  1.0
  C  C111  1  0.10480000  0.08471000  0.83560000  1.0
  O  O112  1  0.49990000  0.30250000  0.26510000  1.0
  O  O113  1  0.99560000  0.55210000  0.23840000  1.0
  O  O114  1  0.91590000  0.06960000  0.87220000  1.0
  O  O115  1  0.93550000  0.08900000  0.54930000  1.0
  O  O116  1  0.55730000  0.15890000  0.44510000  1.0
  O  O117  1  0.58250000  0.18480000  0.14100000  1.0
  O  O118  1  0.41410000  0.30640000  0.86650000  1.0
  O  O119  1  0.44240000  0.34660000  0.56720000  1.0
  O  O120  1  0.06320000  0.41690000  0.45680000  1.0
  O  O121  1  0.08610000  0.42970000  0.14010000  1.0
  O  O122  1  0.50010000  0.80250000  0.23490000  1.0
  O  O123  1  0.00440000  0.05210000  0.26160000  1.0
  O  O124  1  0.08410000  0.56960000  0.62780000  1.0
  O  O125  1  0.06450000  0.58900000  0.95070000  1.0
  O  O126  1  0.44270000  0.65890000  0.05490000  1.0
  O  O127  1  0.41750000  0.68480000  0.35900000  1.0
  O  O128  1  0.58590000  0.80640000  0.63350000  1.0
  O  O129  1  0.55760000  0.84660000  0.93280000  1.0
  O  O130  1  0.93680000  0.91690000  0.04320000  1.0
  O  O131  1  0.91390000  0.92970000  0.35990000  1.0
  O  O132  1  0.50010000  0.69750000  0.73490000  1.0
  O  O133  1  0.00440000  0.44790000  0.76160000  1.0
  O  O134  1  0.08410000  0.93040000  0.12780000  1.0
  O  O135  1  0.06450000  0.91100000  0.45070000  1.0
  O  O136  1  0.44270000  0.84110000  0.55490000  1.0
  O  O137  1  0.41750000  0.81520000  0.85900000  1.0
  O  O138  1  0.58590000  0.69360000  0.13350000  1.0
  O  O139  1  0.55760000  0.65340000  0.43280000  1.0
  O  O140  1  0.93680000  0.58310000  0.54320000  1.0
  O  O141  1  0.91390000  0.57030000  0.85990000  1.0
  O  O142  1  0.49990000  0.19750000  0.76510000  1.0
  O  O143  1  0.99560000  0.94790000  0.73840000  1.0
  O  O144  1  0.91590000  0.43040000  0.37220000  1.0
  O  O145  1  0.93550000  0.41100000  0.04930000  1.0
  O  O146  1  0.55730000  0.34110000  0.94510000  1.0
  O  O147  1  0.58250000  0.31520000  0.64100000  1.0
  O  O148  1  0.41410000  0.19360000  0.36650000  1.0
  O  O149  1  0.44240000  0.15340000  0.06720000  1.0
  O  O150  1  0.06320000  0.08310000  0.95680000  1.0
  O  O151  1  0.08610000  0.07030000  0.64010000  1.0
