# generated using pymatgen
data_Cd3H28C20(NO)8
_symmetry_space_group_name_H-M   'P 1'
_cell_length_a   22.62400000
_cell_length_b   12.64500000
_cell_length_c   14.73500000
_cell_angle_alpha   90.00000000
_cell_angle_beta   94.92000000
_cell_angle_gamma   90.00000000
_symmetry_Int_Tables_number   1
_chemical_formula_structural   Cd3H28C20(NO)8
_chemical_formula_sum   'Cd12 H112 C80 N32 O32'
_cell_volume   4199.86390678
_cell_formula_units_Z   4
loop_
 _symmetry_equiv_pos_site_id
 _symmetry_equiv_pos_as_xyz
  1  'x, y, z'
loop_
 _atom_site_type_symbol
 _atom_site_label
 _atom_site_symmetry_multiplicity
 _atom_site_fract_x
 _atom_site_fract_y
 _atom_site_fract_z
 _atom_site_occupancy
  Cd  Cd0  1  0.25439000  0.91556000  0.75341000  1.0
  Cd  Cd1  1  0.74561000  0.91556000  0.74659000  1.0
  Cd  Cd2  1  0.74561000  0.08444000  0.24659000  1.0
  Cd  Cd3  1  0.25439000  0.08444000  0.25341000  1.0
  Cd  Cd4  1  0.00000000  0.16791000  0.75000000  1.0
  Cd  Cd5  1  0.00000000  0.83209000  0.25000000  1.0
  Cd  Cd6  1  0.75439000  0.41556000  0.75341000  1.0
  Cd  Cd7  1  0.24561000  0.41556000  0.74659000  1.0
  Cd  Cd8  1  0.24561000  0.58444000  0.24659000  1.0
  Cd  Cd9  1  0.75439000  0.58444000  0.25341000  1.0
  Cd  Cd10  1  0.50000000  0.66791000  0.75000000  1.0
  Cd  Cd11  1  0.50000000  0.33209000  0.25000000  1.0
  H  H12  1  0.13040000  0.06350000  0.70300000  1.0
  H  H13  1  0.11500000  0.00110000  0.78990000  1.0
  H  H14  1  0.26730000  0.16310000  0.79240000  1.0
  H  H15  1  0.22250000  0.16350000  0.70530000  1.0
  H  H16  1  0.18480000  0.00100000  0.92760000  1.0
  H  H17  1  0.24400000  0.06580000  0.92830000  1.0
  H  H18  1  0.09180000  0.21670000  0.92530000  1.0
  H  H19  1  0.09420000  0.09290000  0.92450000  1.0
  H  H20  1  0.13050000  0.25690000  0.70370000  1.0
  H  H21  1  0.11470000  0.31670000  0.79190000  1.0
  H  H22  1  0.24360000  0.25030000  0.92640000  1.0
  H  H23  1  0.18540000  0.31590000  0.92800000  1.0
  H  H24  1  0.41740000  0.12900000  0.48840000  1.0
  H  H25  1  0.40650000  0.12070000  0.63490000  1.0
  H  H26  1  0.86960000  0.06350000  0.79700000  1.0
  H  H27  1  0.88500000  0.00110000  0.71010000  1.0
  H  H28  1  0.73270000  0.16310000  0.70760000  1.0
  H  H29  1  0.77750000  0.16350000  0.79470000  1.0
  H  H30  1  0.81520000  0.00100000  0.57240000  1.0
  H  H31  1  0.75600000  0.06580000  0.57170000  1.0
  H  H32  1  0.90820000  0.21670000  0.57470000  1.0
  H  H33  1  0.90580000  0.09290000  0.57550000  1.0
  H  H34  1  0.86950000  0.25690000  0.79630000  1.0
  H  H35  1  0.88530000  0.31670000  0.70810000  1.0
  H  H36  1  0.75640000  0.25030000  0.57360000  1.0
  H  H37  1  0.81460000  0.31590000  0.57200000  1.0
  H  H38  1  0.58260000  0.12900000  0.01160000  1.0
  H  H39  1  0.59350000  0.12070000  0.86510000  1.0
  H  H40  1  0.86960000  0.93650000  0.29700000  1.0
  H  H41  1  0.88500000  0.99890000  0.21010000  1.0
  H  H42  1  0.73270000  0.83690000  0.20760000  1.0
  H  H43  1  0.77750000  0.83650000  0.29470000  1.0
  H  H44  1  0.81520000  0.99900000  0.07240000  1.0
  H  H45  1  0.75600000  0.93420000  0.07170000  1.0
  H  H46  1  0.90820000  0.78330000  0.07470000  1.0
  H  H47  1  0.90580000  0.90710000  0.07550000  1.0
  H  H48  1  0.86950000  0.74310000  0.29630000  1.0
  H  H49  1  0.88530000  0.68330000  0.20810000  1.0
  H  H50  1  0.75640000  0.74970000  0.07360000  1.0
  H  H51  1  0.81460000  0.68410000  0.07200000  1.0
  H  H52  1  0.58260000  0.87100000  0.51160000  1.0
  H  H53  1  0.59350000  0.87930000  0.36510000  1.0
  H  H54  1  0.13040000  0.93650000  0.20300000  1.0
  H  H55  1  0.11500000  0.99890000  0.28990000  1.0
  H  H56  1  0.26730000  0.83690000  0.29240000  1.0
  H  H57  1  0.22250000  0.83650000  0.20530000  1.0
  H  H58  1  0.18480000  0.99900000  0.42760000  1.0
  H  H59  1  0.24400000  0.93420000  0.42830000  1.0
  H  H60  1  0.09180000  0.78330000  0.42530000  1.0
  H  H61  1  0.09420000  0.90710000  0.42450000  1.0
  H  H62  1  0.13050000  0.74310000  0.20370000  1.0
  H  H63  1  0.11470000  0.68330000  0.29190000  1.0
  H  H64  1  0.24360000  0.74970000  0.42640000  1.0
  H  H65  1  0.18540000  0.68410000  0.42800000  1.0
  H  H66  1  0.41740000  0.87100000  0.98840000  1.0
  H  H67  1  0.40650000  0.87930000  0.13490000  1.0
  H  H68  1  0.63040000  0.56350000  0.70300000  1.0
  H  H69  1  0.61500000  0.50110000  0.78990000  1.0
  H  H70  1  0.76730000  0.66310000  0.79240000  1.0
  H  H71  1  0.72250000  0.66350000  0.70530000  1.0
  H  H72  1  0.68480000  0.50100000  0.92760000  1.0
  H  H73  1  0.74400000  0.56580000  0.92830000  1.0
  H  H74  1  0.59180000  0.71670000  0.92530000  1.0
  H  H75  1  0.59420000  0.59290000  0.92450000  1.0
  H  H76  1  0.63050000  0.75690000  0.70370000  1.0
  H  H77  1  0.61470000  0.81670000  0.79190000  1.0
  H  H78  1  0.74360000  0.75030000  0.92640000  1.0
  H  H79  1  0.68540000  0.81590000  0.92800000  1.0
  H  H80  1  0.91740000  0.62900000  0.48840000  1.0
  H  H81  1  0.90650000  0.62070000  0.63490000  1.0
  H  H82  1  0.36960000  0.56350000  0.79700000  1.0
  H  H83  1  0.38500000  0.50110000  0.71010000  1.0
  H  H84  1  0.23270000  0.66310000  0.70760000  1.0
  H  H85  1  0.27750000  0.66350000  0.79470000  1.0
  H  H86  1  0.31520000  0.50100000  0.57240000  1.0
  H  H87  1  0.25600000  0.56580000  0.57170000  1.0
  H  H88  1  0.40820000  0.71670000  0.57470000  1.0
  H  H89  1  0.40580000  0.59290000  0.57550000  1.0
  H  H90  1  0.36950000  0.75690000  0.79630000  1.0
  H  H91  1  0.38530000  0.81670000  0.70810000  1.0
  H  H92  1  0.25640000  0.75030000  0.57360000  1.0
  H  H93  1  0.31460000  0.81590000  0.57200000  1.0
  H  H94  1  0.08260000  0.62900000  0.01160000  1.0
  H  H95  1  0.09350000  0.62070000  0.86510000  1.0
  H  H96  1  0.36960000  0.43650000  0.29700000  1.0
  H  H97  1  0.38500000  0.49890000  0.21010000  1.0
  H  H98  1  0.23270000  0.33690000  0.20760000  1.0
  H  H99  1  0.27750000  0.33650000  0.29470000  1.0
  H  H100  1  0.31520000  0.49900000  0.07240000  1.0
  H  H101  1  0.25600000  0.43420000  0.07170000  1.0
  H  H102  1  0.40820000  0.28330000  0.07470000  1.0
  H  H103  1  0.40580000  0.40710000  0.07550000  1.0
  H  H104  1  0.36950000  0.24310000  0.29630000  1.0
  H  H105  1  0.38530000  0.18330000  0.20810000  1.0
  H  H106  1  0.25640000  0.24970000  0.07360000  1.0
  H  H107  1  0.31460000  0.18410000  0.07200000  1.0
  H  H108  1  0.08260000  0.37100000  0.51160000  1.0
  H  H109  1  0.09350000  0.37930000  0.36510000  1.0
  H  H110  1  0.63040000  0.43650000  0.20300000  1.0
  H  H111  1  0.61500000  0.49890000  0.28990000  1.0
  H  H112  1  0.76730000  0.33690000  0.29240000  1.0
  H  H113  1  0.72250000  0.33650000  0.20530000  1.0
  H  H114  1  0.68480000  0.49900000  0.42760000  1.0
  H  H115  1  0.74400000  0.43420000  0.42830000  1.0
  H  H116  1  0.59180000  0.28330000  0.42530000  1.0
  H  H117  1  0.59420000  0.40710000  0.42450000  1.0
  H  H118  1  0.63050000  0.24310000  0.20370000  1.0
  H  H119  1  0.61470000  0.18330000  0.29190000  1.0
  H  H120  1  0.74360000  0.24970000  0.42640000  1.0
  H  H121  1  0.68540000  0.18410000  0.42800000  1.0
  H  H122  1  0.91740000  0.37100000  0.98840000  1.0
  H  H123  1  0.90650000  0.37930000  0.13490000  1.0
  C  C124  1  0.13440000  0.06400000  0.76910000  1.0
  C  C125  1  0.22550000  0.16220000  0.77130000  1.0
  C  C126  1  0.20260000  0.06440000  0.90480000  1.0
  C  C127  1  0.11250000  0.15630000  0.90260000  1.0
  C  C128  1  0.13430000  0.25470000  0.76980000  1.0
  C  C129  1  0.20250000  0.25210000  0.90470000  1.0
  C  C130  1  0.34090000  0.04900000  0.43330000  1.0
  C  C131  1  0.38390000  0.09520000  0.50650000  1.0
  C  C132  1  0.37730000  0.09100000  0.59450000  1.0
  C  C133  1  0.32400000  0.03960000  0.63270000  1.0
  C  C134  1  0.86560000  0.06400000  0.73090000  1.0
  C  C135  1  0.77450000  0.16220000  0.72870000  1.0
  C  C136  1  0.79740000  0.06440000  0.59520000  1.0
  C  C137  1  0.88750000  0.15630000  0.59740000  1.0
  C  C138  1  0.86570000  0.25470000  0.73020000  1.0
  C  C139  1  0.79750000  0.25210000  0.59530000  1.0
  C  C140  1  0.65910000  0.04900000  0.06670000  1.0
  C  C141  1  0.61610000  0.09520000  0.99350000  1.0
  C  C142  1  0.62270000  0.09100000  0.90550000  1.0
  C  C143  1  0.67600000  0.03960000  0.86730000  1.0
  C  C144  1  0.86560000  0.93600000  0.23090000  1.0
  C  C145  1  0.77450000  0.83780000  0.22870000  1.0
  C  C146  1  0.79740000  0.93560000  0.09520000  1.0
  C  C147  1  0.88750000  0.84370000  0.09740000  1.0
  C  C148  1  0.86570000  0.74530000  0.23020000  1.0
  C  C149  1  0.79750000  0.74790000  0.09530000  1.0
  C  C150  1  0.65910000  0.95100000  0.56670000  1.0
  C  C151  1  0.61610000  0.90480000  0.49350000  1.0
  C  C152  1  0.62270000  0.90900000  0.40550000  1.0
  C  C153  1  0.67600000  0.96040000  0.36730000  1.0
  C  C154  1  0.13440000  0.93600000  0.26910000  1.0
  C  C155  1  0.22550000  0.83780000  0.27130000  1.0
  C  C156  1  0.20260000  0.93560000  0.40480000  1.0
  C  C157  1  0.11250000  0.84370000  0.40260000  1.0
  C  C158  1  0.13430000  0.74530000  0.26980000  1.0
  C  C159  1  0.20250000  0.74790000  0.40470000  1.0
  C  C160  1  0.34090000  0.95100000  0.93330000  1.0
  C  C161  1  0.38390000  0.90480000  0.00650000  1.0
  C  C162  1  0.37730000  0.90900000  0.09450000  1.0
  C  C163  1  0.32400000  0.96040000  0.13270000  1.0
  C  C164  1  0.63440000  0.56400000  0.76910000  1.0
  C  C165  1  0.72550000  0.66220000  0.77130000  1.0
  C  C166  1  0.70260000  0.56440000  0.90480000  1.0
  C  C167  1  0.61250000  0.65630000  0.90260000  1.0
  C  C168  1  0.63430000  0.75470000  0.76980000  1.0
  C  C169  1  0.70250000  0.75210000  0.90470000  1.0
  C  C170  1  0.84090000  0.54900000  0.43330000  1.0
  C  C171  1  0.88390000  0.59520000  0.50650000  1.0
  C  C172  1  0.87730000  0.59100000  0.59450000  1.0
  C  C173  1  0.82400000  0.53960000  0.63270000  1.0
  C  C174  1  0.36560000  0.56400000  0.73090000  1.0
  C  C175  1  0.27450000  0.66220000  0.72870000  1.0
  C  C176  1  0.29740000  0.56440000  0.59520000  1.0
  C  C177  1  0.38750000  0.65630000  0.59740000  1.0
  C  C178  1  0.36570000  0.75470000  0.73020000  1.0
  C  C179  1  0.29750000  0.75210000  0.59530000  1.0
  C  C180  1  0.15910000  0.54900000  0.06670000  1.0
  C  C181  1  0.11610000  0.59520000  0.99350000  1.0
  C  C182  1  0.12270000  0.59100000  0.90550000  1.0
  C  C183  1  0.17600000  0.53960000  0.86730000  1.0
  C  C184  1  0.36560000  0.43600000  0.23090000  1.0
  C  C185  1  0.27450000  0.33780000  0.22870000  1.0
  C  C186  1  0.29740000  0.43560000  0.09520000  1.0
  C  C187  1  0.38750000  0.34370000  0.09740000  1.0
  C  C188  1  0.36570000  0.24530000  0.23020000  1.0
  C  C189  1  0.29750000  0.24790000  0.09530000  1.0
  C  C190  1  0.15910000  0.45100000  0.56670000  1.0
  C  C191  1  0.11610000  0.40480000  0.49350000  1.0
  C  C192  1  0.12270000  0.40900000  0.40550000  1.0
  C  C193  1  0.17600000  0.46040000  0.36730000  1.0
  C  C194  1  0.63440000  0.43600000  0.26910000  1.0
  C  C195  1  0.72550000  0.33780000  0.27130000  1.0
  C  C196  1  0.70260000  0.43560000  0.40480000  1.0
  C  C197  1  0.61250000  0.34370000  0.40260000  1.0
  C  C198  1  0.63430000  0.24530000  0.26980000  1.0
  C  C199  1  0.70250000  0.24790000  0.40470000  1.0
  C  C200  1  0.84090000  0.45100000  0.93330000  1.0
  C  C201  1  0.88390000  0.40480000  0.00650000  1.0
  C  C202  1  0.87730000  0.40900000  0.09450000  1.0
  C  C203  1  0.82400000  0.46040000  0.13270000  1.0
  N  N204  1  0.10470000  0.15710000  0.80130000  1.0
  N  N205  1  0.19875000  0.06050000  0.80190000  1.0
  N  N206  1  0.17180000  0.15950000  0.93850000  1.0
  N  N207  1  0.19806000  0.25640000  0.80330000  1.0
  N  N208  1  0.89530000  0.15710000  0.69870000  1.0
  N  N209  1  0.80125000  0.06050000  0.69810000  1.0
  N  N210  1  0.82820000  0.15950000  0.56150000  1.0
  N  N211  1  0.80194000  0.25640000  0.69670000  1.0
  N  N212  1  0.89530000  0.84290000  0.19870000  1.0
  N  N213  1  0.80125000  0.93950000  0.19810000  1.0
  N  N214  1  0.82820000  0.84050000  0.06150000  1.0
  N  N215  1  0.80194000  0.74360000  0.19670000  1.0
  N  N216  1  0.10470000  0.84290000  0.30130000  1.0
  N  N217  1  0.19875000  0.93950000  0.30190000  1.0
  N  N218  1  0.17180000  0.84050000  0.43850000  1.0
  N  N219  1  0.19806000  0.74360000  0.30330000  1.0
  N  N220  1  0.60470000  0.65710000  0.80130000  1.0
  N  N221  1  0.69875000  0.56050000  0.80190000  1.0
  N  N222  1  0.67180000  0.65950000  0.93850000  1.0
  N  N223  1  0.69806000  0.75640000  0.80330000  1.0
  N  N224  1  0.39530000  0.65710000  0.69870000  1.0
  N  N225  1  0.30125000  0.56050000  0.69810000  1.0
  N  N226  1  0.32820000  0.65950000  0.56150000  1.0
  N  N227  1  0.30194000  0.75640000  0.69670000  1.0
  N  N228  1  0.39530000  0.34290000  0.19870000  1.0
  N  N229  1  0.30125000  0.43950000  0.19810000  1.0
  N  N230  1  0.32820000  0.34050000  0.06150000  1.0
  N  N231  1  0.30194000  0.24360000  0.19670000  1.0
  N  N232  1  0.60470000  0.34290000  0.30130000  1.0
  N  N233  1  0.69875000  0.43950000  0.30190000  1.0
  N  N234  1  0.67180000  0.34050000  0.43850000  1.0
  N  N235  1  0.69806000  0.24360000  0.30330000  1.0
  O  O236  1  0.33501000  0.99820000  0.71240000  1.0
  O  O237  1  0.27572000  0.03690000  0.59170000  1.0
  O  O238  1  0.34163000  0.95240000  0.41790000  1.0
  O  O239  1  0.30733000  0.11760000  0.38930000  1.0
  O  O240  1  0.66499000  0.99820000  0.78760000  1.0
  O  O241  1  0.72428000  0.03690000  0.90830000  1.0
  O  O242  1  0.65837000  0.95240000  0.08210000  1.0
  O  O243  1  0.69267000  0.11760000  0.11070000  1.0
  O  O244  1  0.66499000  0.00180000  0.28760000  1.0
  O  O245  1  0.72428000  0.96310000  0.40830000  1.0
  O  O246  1  0.65837000  0.04760000  0.58210000  1.0
  O  O247  1  0.69267000  0.88240000  0.61070000  1.0
  O  O248  1  0.33501000  0.00180000  0.21240000  1.0
  O  O249  1  0.27572000  0.96310000  0.09170000  1.0
  O  O250  1  0.34163000  0.04760000  0.91790000  1.0
  O  O251  1  0.30733000  0.88240000  0.88930000  1.0
  O  O252  1  0.83501000  0.49820000  0.71240000  1.0
  O  O253  1  0.77572000  0.53690000  0.59170000  1.0
  O  O254  1  0.84163000  0.45240000  0.41790000  1.0
  O  O255  1  0.80733000  0.61760000  0.38930000  1.0
  O  O256  1  0.16499000  0.49820000  0.78760000  1.0
  O  O257  1  0.22428000  0.53690000  0.90830000  1.0
  O  O258  1  0.15837000  0.45240000  0.08210000  1.0
  O  O259  1  0.19267000  0.61760000  0.11070000  1.0
  O  O260  1  0.16499000  0.50180000  0.28760000  1.0
  O  O261  1  0.22428000  0.46310000  0.40830000  1.0
  O  O262  1  0.15837000  0.54760000  0.58210000  1.0
  O  O263  1  0.19267000  0.38240000  0.61070000  1.0
  O  O264  1  0.83501000  0.50180000  0.21240000  1.0
  O  O265  1  0.77572000  0.46310000  0.09170000  1.0
  O  O266  1  0.84163000  0.54760000  0.91790000  1.0
  O  O267  1  0.80733000  0.38240000  0.88930000  1.0
