# generated using pymatgen
data_ZnMo4H11C12N9O7
_symmetry_space_group_name_H-M   'P 1'
_cell_length_a   10.57500000
_cell_length_b   10.89400000
_cell_length_c   13.87000000
_cell_angle_alpha   87.23300000
_cell_angle_beta   72.40300000
_cell_angle_gamma   66.40800000
_symmetry_Int_Tables_number   1
_chemical_formula_structural   ZnMo4H11C12N9O7
_chemical_formula_sum   'Zn2 Mo8 H22 C24 N18 O14'
_cell_volume   1390.96108515
_cell_formula_units_Z   2
loop_
 _symmetry_equiv_pos_site_id
 _symmetry_equiv_pos_as_xyz
  1  'x, y, z'
loop_
 _atom_site_type_symbol
 _atom_site_label
 _atom_site_symmetry_multiplicity
 _atom_site_fract_x
 _atom_site_fract_y
 _atom_site_fract_z
 _atom_site_occupancy
  Zn  Zn0  1  0.00224000  0.81777000  0.66416000  1.0
  Zn  Zn1  1  0.99776000  0.18223000  0.33584000  1.0
  Mo  Mo2  1  0.78084000  0.98450000  0.48644000  1.0
  Mo  Mo3  1  0.47275000  0.00117000  0.63356000  1.0
  Mo  Mo4  1  0.17573000  0.29117000  0.62648000  1.0
  Mo  Mo5  1  0.49051000  0.26909000  0.47985000  1.0
  Mo  Mo6  1  0.21916000  0.01550000  0.51356000  1.0
  Mo  Mo7  1  0.52725000  0.99883000  0.36644000  1.0
  Mo  Mo8  1  0.82427000  0.70883000  0.37352000  1.0
  Mo  Mo9  1  0.50949000  0.73091000  0.52015000  1.0
  H  H10  1  0.49310000  0.72720000  0.82770000  1.0
  H  H11  1  0.35360000  0.80460000  0.91870000  1.0
  H  H12  1  0.17430000  0.88920000  0.80830000  1.0
  H  H13  1  0.24130000  0.54240000  0.69720000  1.0
  H  H14  1  0.14500000  0.67770000  0.11370000  1.0
  H  H15  1  0.17900000  0.75280000  0.01620000  1.0
  H  H16  1  0.00060000  0.90890000  0.22980000  1.0
  H  H17  1  0.23950000  0.59250000  0.22650000  1.0
  H  H18  1  0.36950000  0.47370000  0.24930000  1.0
  H  H19  1  0.18760000  0.35760000  0.34900000  1.0
  H  H20  1  0.09710000  0.27900000  0.11570000  1.0
  H  H21  1  0.50690000  0.27280000  0.17230000  1.0
  H  H22  1  0.64640000  0.19540000  0.08130000  1.0
  H  H23  1  0.82570000  0.11080000  0.19170000  1.0
  H  H24  1  0.75870000  0.45760000  0.30280000  1.0
  H  H25  1  0.85500000  0.32230000  0.88630000  1.0
  H  H26  1  0.82100000  0.24720000  0.98380000  1.0
  H  H27  1  0.99940000  0.09110000  0.77020000  1.0
  H  H28  1  0.76050000  0.40750000  0.77350000  1.0
  H  H29  1  0.63050000  0.52630000  0.75070000  1.0
  H  H30  1  0.81240000  0.64240000  0.65100000  1.0
  H  H31  1  0.90290000  0.72100000  0.88430000  1.0
  C  C32  1  0.45430000  0.60560000  0.94020000  1.0
  C  C33  1  0.36300000  0.60600000  0.03640000  1.0
  C  C34  1  0.40870000  0.50110000  0.09740000  1.0
  C  C35  1  0.40770000  0.72120000  0.87550000  1.0
  C  C36  1  0.21080000  0.79740000  0.79100000  1.0
  C  C37  1  0.24980000  0.60850000  0.73160000  1.0
  C  C38  1  0.21080000  0.71610000  0.07400000  1.0
  C  C39  1  0.09130000  0.91210000  0.20700000  1.0
  C  C40  1  0.26570000  0.97010000  0.18150000  1.0
  C  C41  1  0.31180000  0.50180000  0.20330000  1.0
  C  C42  1  0.18140000  0.35330000  0.28380000  1.0
  C  C43  1  0.13300000  0.31300000  0.15660000  1.0
  C  C44  1  0.54570000  0.39440000  0.05980000  1.0
  C  C45  1  0.63700000  0.39400000  0.96360000  1.0
  C  C46  1  0.59130000  0.49890000  0.90260000  1.0
  C  C47  1  0.59230000  0.27880000  0.12450000  1.0
  C  C48  1  0.78920000  0.20260000  0.20900000  1.0
  C  C49  1  0.75020000  0.39150000  0.26840000  1.0
  C  C50  1  0.78920000  0.28390000  0.92600000  1.0
  C  C51  1  0.90870000  0.08790000  0.79300000  1.0
  C  C52  1  0.73430000  0.02990000  0.81850000  1.0
  C  C53  1  0.68820000  0.49820000  0.79670000  1.0
  C  C54  1  0.81860000  0.64670000  0.71620000  1.0
  C  C55  1  0.86700000  0.68700000  0.84340000  1.0
  N  N56  1  0.16450000  0.74110000  0.73480000  1.0
  N  N57  1  0.31700000  0.70430000  0.81920000  1.0
  N  N58  1  0.34480000  0.58080000  0.78050000  1.0
  N  N59  1  0.12280000  0.00270000  0.24040000  1.0
  N  N60  1  0.20410000  0.82540000  0.13680000  1.0
  N  N61  1  0.31800000  0.84300000  0.13740000  1.0
  N  N62  1  0.11470000  0.28920000  0.25410000  1.0
  N  N63  1  0.23840000  0.41080000  0.20520000  1.0
  N  N64  1  0.20540000  0.38780000  0.12280000  1.0
  N  N65  1  0.83550000  0.25890000  0.26520000  1.0
  N  N66  1  0.68300000  0.29570000  0.18080000  1.0
  N  N67  1  0.65520000  0.41920000  0.21950000  1.0
  N  N68  1  0.87720000  0.99730000  0.75960000  1.0
  N  N69  1  0.79590000  0.17460000  0.86320000  1.0
  N  N70  1  0.68200000  0.15700000  0.86260000  1.0
  N  N71  1  0.88530000  0.71080000  0.74590000  1.0
  N  N72  1  0.76160000  0.58920000  0.79480000  1.0
  N  N73  1  0.79460000  0.61220000  0.87720000  1.0
  O  O74  1  0.85170000  0.89400000  0.57600000  1.0
  O  O75  1  0.87760000  0.85860000  0.37310000  1.0
  O  O76  1  0.63000000  0.10160000  0.39200000  1.0
  O  O77  1  0.59260000  0.10360000  0.58210000  1.0
  O  O78  1  0.32090000  0.13520000  0.70730000  1.0
  O  O79  1  0.37700000  0.11570000  0.50390000  1.0
  O  O80  1  0.33490000  0.34180000  0.60120000  1.0
  O  O81  1  0.14830000  0.10600000  0.42400000  1.0
  O  O82  1  0.12240000  0.14140000  0.62690000  1.0
  O  O83  1  0.37000000  0.89840000  0.60800000  1.0
  O  O84  1  0.40740000  0.89640000  0.41790000  1.0
  O  O85  1  0.67910000  0.86480000  0.29270000  1.0
  O  O86  1  0.62300000  0.88430000  0.49610000  1.0
  O  O87  1  0.66510000  0.65820000  0.39880000  1.0
