# generated using pymatgen
data_AgH4C6NO2
_symmetry_space_group_name_H-M   'P 1'
_cell_length_a   7.17280000
_cell_length_b   23.75370000
_cell_length_c   30.70100000
_cell_angle_alpha   90.00000000
_cell_angle_beta   90.00000000
_cell_angle_gamma   90.00000000
_symmetry_Int_Tables_number   1
_chemical_formula_structural   AgH4C6NO2
_chemical_formula_sum   'Ag32 H128 C192 N32 O64'
_cell_volume   5230.85293889
_cell_formula_units_Z   32
loop_
 _symmetry_equiv_pos_site_id
 _symmetry_equiv_pos_as_xyz
  1  'x, y, z'
loop_
 _atom_site_type_symbol
 _atom_site_label
 _atom_site_symmetry_multiplicity
 _atom_site_fract_x
 _atom_site_fract_y
 _atom_site_fract_z
 _atom_site_occupancy
  Ag  Ag0  1  0.19537000  0.76997000  0.29077000  1.0
  Ag  Ag1  1  0.53058000  0.44286000  0.48430000  1.0
  Ag  Ag2  1  0.69537000  0.26997000  0.79077000  1.0
  Ag  Ag3  1  0.03058000  0.94286000  0.98430000  1.0
  Ag  Ag4  1  0.30463000  0.23003000  0.79077000  1.0
  Ag  Ag5  1  0.96942000  0.55714000  0.98430000  1.0
  Ag  Ag6  1  0.80463000  0.73003000  0.29077000  1.0
  Ag  Ag7  1  0.46942000  0.05714000  0.48430000  1.0
  Ag  Ag8  1  0.80463000  0.26997000  0.20923000  1.0
  Ag  Ag9  1  0.46942000  0.94286000  0.01570000  1.0
  Ag  Ag10  1  0.30463000  0.76997000  0.70923000  1.0
  Ag  Ag11  1  0.96942000  0.44286000  0.51570000  1.0
  Ag  Ag12  1  0.69537000  0.73003000  0.70923000  1.0
  Ag  Ag13  1  0.03058000  0.05714000  0.51570000  1.0
  Ag  Ag14  1  0.19537000  0.23003000  0.20923000  1.0
  Ag  Ag15  1  0.53058000  0.55714000  0.01570000  1.0
  Ag  Ag16  1  0.80463000  0.23003000  0.70923000  1.0
  Ag  Ag17  1  0.46942000  0.55714000  0.51570000  1.0
  Ag  Ag18  1  0.30463000  0.73003000  0.20923000  1.0
  Ag  Ag19  1  0.96942000  0.05714000  0.01570000  1.0
  Ag  Ag20  1  0.69537000  0.76997000  0.20923000  1.0
  Ag  Ag21  1  0.03058000  0.44286000  0.01570000  1.0
  Ag  Ag22  1  0.19537000  0.26997000  0.70923000  1.0
  Ag  Ag23  1  0.53058000  0.94286000  0.51570000  1.0
  Ag  Ag24  1  0.19537000  0.73003000  0.79077000  1.0
  Ag  Ag25  1  0.53058000  0.05714000  0.98430000  1.0
  Ag  Ag26  1  0.69537000  0.23003000  0.29077000  1.0
  Ag  Ag27  1  0.03058000  0.55714000  0.48430000  1.0
  Ag  Ag28  1  0.30463000  0.26997000  0.29077000  1.0
  Ag  Ag29  1  0.96942000  0.94286000  0.48430000  1.0
  Ag  Ag30  1  0.80463000  0.76997000  0.79077000  1.0
  Ag  Ag31  1  0.46942000  0.44286000  0.98430000  1.0
  H  H32  1  0.95260000  0.87030000  0.32820000  1.0
  H  H33  1  0.87680000  0.92060000  0.39000000  1.0
  H  H34  1  0.17050000  0.81630000  0.46120000  1.0
  H  H35  1  0.24540000  0.76510000  0.39980000  1.0
  H  H36  1  0.65010000  0.58140000  0.25700000  1.0
  H  H37  1  0.80670000  0.50790000  0.29240000  1.0
  H  H38  1  0.78130000  0.49760000  0.36700000  1.0
  H  H39  1  0.43870000  0.63250000  0.37290000  1.0
  H  H40  1  0.45260000  0.37030000  0.82820000  1.0
  H  H41  1  0.37680000  0.42060000  0.89000000  1.0
  H  H42  1  0.67050000  0.31630000  0.96120000  1.0
  H  H43  1  0.74540000  0.26510000  0.89980000  1.0
  H  H44  1  0.15010000  0.08140000  0.75700000  1.0
  H  H45  1  0.30670000  0.00790000  0.79240000  1.0
  H  H46  1  0.28130000  0.99760000  0.86700000  1.0
  H  H47  1  0.93870000  0.13250000  0.87290000  1.0
  H  H48  1  0.54740000  0.12970000  0.82820000  1.0
  H  H49  1  0.62320000  0.07940000  0.89000000  1.0
  H  H50  1  0.32950000  0.18370000  0.96120000  1.0
  H  H51  1  0.25460000  0.23490000  0.89980000  1.0
  H  H52  1  0.84990000  0.41860000  0.75700000  1.0
  H  H53  1  0.69330000  0.49210000  0.79240000  1.0
  H  H54  1  0.71870000  0.50240000  0.86700000  1.0
  H  H55  1  0.06130000  0.36750000  0.87290000  1.0
  H  H56  1  0.04740000  0.62970000  0.32820000  1.0
  H  H57  1  0.12320000  0.57940000  0.39000000  1.0
  H  H58  1  0.82950000  0.68370000  0.46120000  1.0
  H  H59  1  0.75460000  0.73490000  0.39980000  1.0
  H  H60  1  0.34990000  0.91860000  0.25700000  1.0
  H  H61  1  0.19330000  0.99210000  0.29240000  1.0
  H  H62  1  0.21870000  0.00240000  0.36700000  1.0
  H  H63  1  0.56130000  0.86750000  0.37290000  1.0
  H  H64  1  0.04740000  0.37030000  0.17180000  1.0
  H  H65  1  0.12320000  0.42060000  0.11000000  1.0
  H  H66  1  0.82950000  0.31630000  0.03880000  1.0
  H  H67  1  0.75460000  0.26510000  0.10020000  1.0
  H  H68  1  0.34990000  0.08140000  0.24300000  1.0
  H  H69  1  0.19330000  0.00790000  0.20760000  1.0
  H  H70  1  0.21870000  0.99760000  0.13300000  1.0
  H  H71  1  0.56130000  0.13250000  0.12710000  1.0
  H  H72  1  0.54740000  0.87030000  0.67180000  1.0
  H  H73  1  0.62320000  0.92060000  0.61000000  1.0
  H  H74  1  0.32950000  0.81630000  0.53880000  1.0
  H  H75  1  0.25460000  0.76510000  0.60020000  1.0
  H  H76  1  0.84990000  0.58140000  0.74300000  1.0
  H  H77  1  0.69330000  0.50790000  0.70760000  1.0
  H  H78  1  0.71870000  0.49760000  0.63300000  1.0
  H  H79  1  0.06130000  0.63250000  0.62710000  1.0
  H  H80  1  0.45260000  0.62970000  0.67180000  1.0
  H  H81  1  0.37680000  0.57940000  0.61000000  1.0
  H  H82  1  0.67050000  0.68370000  0.53880000  1.0
  H  H83  1  0.74540000  0.73490000  0.60020000  1.0
  H  H84  1  0.15010000  0.91860000  0.74300000  1.0
  H  H85  1  0.30670000  0.99210000  0.70760000  1.0
  H  H86  1  0.28130000  0.00240000  0.63300000  1.0
  H  H87  1  0.93870000  0.86750000  0.62710000  1.0
  H  H88  1  0.95260000  0.12970000  0.17180000  1.0
  H  H89  1  0.87680000  0.07940000  0.11000000  1.0
  H  H90  1  0.17050000  0.18370000  0.03880000  1.0
  H  H91  1  0.24540000  0.23490000  0.10020000  1.0
  H  H92  1  0.65010000  0.41860000  0.24300000  1.0
  H  H93  1  0.80670000  0.49210000  0.20760000  1.0
  H  H94  1  0.78130000  0.50240000  0.13300000  1.0
  H  H95  1  0.43870000  0.36750000  0.12710000  1.0
  H  H96  1  0.04740000  0.12970000  0.67180000  1.0
  H  H97  1  0.12320000  0.07940000  0.61000000  1.0
  H  H98  1  0.82950000  0.18370000  0.53880000  1.0
  H  H99  1  0.75460000  0.23490000  0.60020000  1.0
  H  H100  1  0.34990000  0.41860000  0.74300000  1.0
  H  H101  1  0.19330000  0.49210000  0.70760000  1.0
  H  H102  1  0.21870000  0.50240000  0.63300000  1.0
  H  H103  1  0.56130000  0.36750000  0.62710000  1.0
  H  H104  1  0.54740000  0.62970000  0.17180000  1.0
  H  H105  1  0.62320000  0.57940000  0.11000000  1.0
  H  H106  1  0.32950000  0.68370000  0.03880000  1.0
  H  H107  1  0.25460000  0.73490000  0.10020000  1.0
  H  H108  1  0.84990000  0.91860000  0.24300000  1.0
  H  H109  1  0.69330000  0.99210000  0.20760000  1.0
  H  H110  1  0.71870000  0.00240000  0.13300000  1.0
  H  H111  1  0.06130000  0.86750000  0.12710000  1.0
  H  H112  1  0.45260000  0.87030000  0.17180000  1.0
  H  H113  1  0.37680000  0.92060000  0.11000000  1.0
  H  H114  1  0.67050000  0.81630000  0.03880000  1.0
  H  H115  1  0.74540000  0.76510000  0.10020000  1.0
  H  H116  1  0.15010000  0.58140000  0.24300000  1.0
  H  H117  1  0.30670000  0.50790000  0.20760000  1.0
  H  H118  1  0.28130000  0.49760000  0.13300000  1.0
  H  H119  1  0.93870000  0.63250000  0.12710000  1.0
  H  H120  1  0.95260000  0.37030000  0.67180000  1.0
  H  H121  1  0.87680000  0.42060000  0.61000000  1.0
  H  H122  1  0.17050000  0.31630000  0.53880000  1.0
  H  H123  1  0.24540000  0.26510000  0.60020000  1.0
  H  H124  1  0.65010000  0.08140000  0.74300000  1.0
  H  H125  1  0.80670000  0.00790000  0.70760000  1.0
  H  H126  1  0.78130000  0.99760000  0.63300000  1.0
  H  H127  1  0.43870000  0.13250000  0.62710000  1.0
  H  H128  1  0.95260000  0.62970000  0.82820000  1.0
  H  H129  1  0.87680000  0.57940000  0.89000000  1.0
  H  H130  1  0.17050000  0.68370000  0.96120000  1.0
  H  H131  1  0.24540000  0.73490000  0.89980000  1.0
  H  H132  1  0.65010000  0.91860000  0.75700000  1.0
  H  H133  1  0.80670000  0.99210000  0.79240000  1.0
  H  H134  1  0.78130000  0.00240000  0.86700000  1.0
  H  H135  1  0.43870000  0.86750000  0.87290000  1.0
  H  H136  1  0.45260000  0.12970000  0.32820000  1.0
  H  H137  1  0.37680000  0.07940000  0.39000000  1.0
  H  H138  1  0.67050000  0.18370000  0.46120000  1.0
  H  H139  1  0.74540000  0.23490000  0.39980000  1.0
  H  H140  1  0.15010000  0.41860000  0.25700000  1.0
  H  H141  1  0.30670000  0.49210000  0.29240000  1.0
  H  H142  1  0.28130000  0.50240000  0.36700000  1.0
  H  H143  1  0.93870000  0.36750000  0.37290000  1.0
  H  H144  1  0.54740000  0.37030000  0.32820000  1.0
  H  H145  1  0.62320000  0.42060000  0.39000000  1.0
  H  H146  1  0.32950000  0.31630000  0.46120000  1.0
  H  H147  1  0.25460000  0.26510000  0.39980000  1.0
  H  H148  1  0.84990000  0.08140000  0.25700000  1.0
  H  H149  1  0.69330000  0.00790000  0.29240000  1.0
  H  H150  1  0.71870000  0.99760000  0.36700000  1.0
  H  H151  1  0.06130000  0.13250000  0.37290000  1.0
  H  H152  1  0.04740000  0.87030000  0.82820000  1.0
  H  H153  1  0.12320000  0.92060000  0.89000000  1.0
  H  H154  1  0.82950000  0.81630000  0.96120000  1.0
  H  H155  1  0.75460000  0.76510000  0.89980000  1.0
  H  H156  1  0.34990000  0.58140000  0.75700000  1.0
  H  H157  1  0.19330000  0.50790000  0.79240000  1.0
  H  H158  1  0.21870000  0.49760000  0.86700000  1.0
  H  H159  1  0.56130000  0.63250000  0.87290000  1.0
  C  C160  1  0.99960000  0.85830000  0.35558000  1.0
  C  C161  1  0.95500000  0.88851000  0.39264000  1.0
  C  C162  1  0.12430000  0.82818000  0.43372000  1.0
  C  C163  1  0.16910000  0.79756000  0.39699000  1.0
  C  C164  1  0.43500000  0.66348000  0.28982000  1.0
  C  C165  1  0.53070000  0.61453000  0.31173000  1.0
  C  C166  1  0.63940000  0.57706000  0.28768000  1.0
  C  C167  1  0.73210000  0.53338000  0.30865000  1.0
  C  C168  1  0.71570000  0.52709000  0.35285000  1.0
  C  C169  1  0.60470000  0.56322000  0.37733000  1.0
  C  C170  1  0.51340000  0.60724000  0.35645000  1.0
  C  C171  1  0.58100000  0.55366000  0.42540000  1.0
  C  C172  1  0.49960000  0.35830000  0.85558000  1.0
  C  C173  1  0.45500000  0.38851000  0.89264000  1.0
  C  C174  1  0.62430000  0.32818000  0.93372000  1.0
  C  C175  1  0.66910000  0.29756000  0.89699000  1.0
  C  C176  1  0.93500000  0.16348000  0.78982000  1.0
  C  C177  1  0.03070000  0.11453000  0.81173000  1.0
  C  C178  1  0.13940000  0.07706000  0.78768000  1.0
  C  C179  1  0.23210000  0.03338000  0.80865000  1.0
  C  C180  1  0.21570000  0.02709000  0.85285000  1.0
  C  C181  1  0.10470000  0.06322000  0.87733000  1.0
  C  C182  1  0.01340000  0.10724000  0.85645000  1.0
  C  C183  1  0.08100000  0.05366000  0.92540000  1.0
  C  C184  1  0.50040000  0.14170000  0.85558000  1.0
  C  C185  1  0.54500000  0.11149000  0.89264000  1.0
  C  C186  1  0.37570000  0.17182000  0.93372000  1.0
  C  C187  1  0.33090000  0.20244000  0.89699000  1.0
  C  C188  1  0.06500000  0.33652000  0.78982000  1.0
  C  C189  1  0.96930000  0.38547000  0.81173000  1.0
  C  C190  1  0.86060000  0.42294000  0.78768000  1.0
  C  C191  1  0.76790000  0.46662000  0.80865000  1.0
  C  C192  1  0.78430000  0.47291000  0.85285000  1.0
  C  C193  1  0.89530000  0.43678000  0.87733000  1.0
  C  C194  1  0.98660000  0.39276000  0.85645000  1.0
  C  C195  1  0.91900000  0.44634000  0.92540000  1.0
  C  C196  1  0.00040000  0.64170000  0.35558000  1.0
  C  C197  1  0.04500000  0.61149000  0.39264000  1.0
  C  C198  1  0.87570000  0.67182000  0.43372000  1.0
  C  C199  1  0.83090000  0.70244000  0.39699000  1.0
  C  C200  1  0.56500000  0.83652000  0.28982000  1.0
  C  C201  1  0.46930000  0.88547000  0.31173000  1.0
  C  C202  1  0.36060000  0.92294000  0.28768000  1.0
  C  C203  1  0.26790000  0.96662000  0.30865000  1.0
  C  C204  1  0.28430000  0.97291000  0.35285000  1.0
  C  C205  1  0.39530000  0.93678000  0.37733000  1.0
  C  C206  1  0.48660000  0.89276000  0.35645000  1.0
  C  C207  1  0.41900000  0.94634000  0.42540000  1.0
  C  C208  1  0.00040000  0.35830000  0.14442000  1.0
  C  C209  1  0.04500000  0.38851000  0.10736000  1.0
  C  C210  1  0.87570000  0.32818000  0.06628000  1.0
  C  C211  1  0.83090000  0.29756000  0.10301000  1.0
  C  C212  1  0.56500000  0.16348000  0.21018000  1.0
  C  C213  1  0.46930000  0.11453000  0.18827000  1.0
  C  C214  1  0.36060000  0.07706000  0.21232000  1.0
  C  C215  1  0.26790000  0.03338000  0.19135000  1.0
  C  C216  1  0.28430000  0.02709000  0.14715000  1.0
  C  C217  1  0.39530000  0.06322000  0.12267000  1.0
  C  C218  1  0.48660000  0.10724000  0.14355000  1.0
  C  C219  1  0.41900000  0.05366000  0.07460000  1.0
  C  C220  1  0.50040000  0.85830000  0.64442000  1.0
  C  C221  1  0.54500000  0.88851000  0.60736000  1.0
  C  C222  1  0.37570000  0.82818000  0.56628000  1.0
  C  C223  1  0.33090000  0.79756000  0.60301000  1.0
  C  C224  1  0.06500000  0.66348000  0.71018000  1.0
  C  C225  1  0.96930000  0.61453000  0.68827000  1.0
  C  C226  1  0.86060000  0.57706000  0.71232000  1.0
  C  C227  1  0.76790000  0.53338000  0.69135000  1.0
  C  C228  1  0.78430000  0.52709000  0.64715000  1.0
  C  C229  1  0.89530000  0.56322000  0.62267000  1.0
  C  C230  1  0.98660000  0.60724000  0.64355000  1.0
  C  C231  1  0.91900000  0.55366000  0.57460000  1.0
  C  C232  1  0.49960000  0.64170000  0.64442000  1.0
  C  C233  1  0.45500000  0.61149000  0.60736000  1.0
  C  C234  1  0.62430000  0.67182000  0.56628000  1.0
  C  C235  1  0.66910000  0.70244000  0.60301000  1.0
  C  C236  1  0.93500000  0.83652000  0.71018000  1.0
  C  C237  1  0.03070000  0.88547000  0.68827000  1.0
  C  C238  1  0.13940000  0.92294000  0.71232000  1.0
  C  C239  1  0.23210000  0.96662000  0.69135000  1.0
  C  C240  1  0.21570000  0.97291000  0.64715000  1.0
  C  C241  1  0.10470000  0.93678000  0.62267000  1.0
  C  C242  1  0.01340000  0.89276000  0.64355000  1.0
  C  C243  1  0.08100000  0.94634000  0.57460000  1.0
  C  C244  1  0.99960000  0.14170000  0.14442000  1.0
  C  C245  1  0.95500000  0.11149000  0.10736000  1.0
  C  C246  1  0.12430000  0.17182000  0.06628000  1.0
  C  C247  1  0.16910000  0.20244000  0.10301000  1.0
  C  C248  1  0.43500000  0.33652000  0.21018000  1.0
  C  C249  1  0.53070000  0.38547000  0.18827000  1.0
  C  C250  1  0.63940000  0.42294000  0.21232000  1.0
  C  C251  1  0.73210000  0.46662000  0.19135000  1.0
  C  C252  1  0.71570000  0.47291000  0.14715000  1.0
  C  C253  1  0.60470000  0.43678000  0.12267000  1.0
  C  C254  1  0.51340000  0.39276000  0.14355000  1.0
  C  C255  1  0.58100000  0.44634000  0.07460000  1.0
  C  C256  1  0.00040000  0.14170000  0.64442000  1.0
  C  C257  1  0.04500000  0.11149000  0.60736000  1.0
  C  C258  1  0.87570000  0.17182000  0.56628000  1.0
  C  C259  1  0.83090000  0.20244000  0.60301000  1.0
  C  C260  1  0.56500000  0.33652000  0.71018000  1.0
  C  C261  1  0.46930000  0.38547000  0.68827000  1.0
  C  C262  1  0.36060000  0.42294000  0.71232000  1.0
  C  C263  1  0.26790000  0.46662000  0.69135000  1.0
  C  C264  1  0.28430000  0.47291000  0.64715000  1.0
  C  C265  1  0.39530000  0.43678000  0.62267000  1.0
  C  C266  1  0.48660000  0.39276000  0.64355000  1.0
  C  C267  1  0.41900000  0.44634000  0.57460000  1.0
  C  C268  1  0.50040000  0.64170000  0.14442000  1.0
  C  C269  1  0.54500000  0.61149000  0.10736000  1.0
  C  C270  1  0.37570000  0.67182000  0.06628000  1.0
  C  C271  1  0.33090000  0.70244000  0.10301000  1.0
  C  C272  1  0.06500000  0.83652000  0.21018000  1.0
  C  C273  1  0.96930000  0.88547000  0.18827000  1.0
  C  C274  1  0.86060000  0.92294000  0.21232000  1.0
  C  C275  1  0.76790000  0.96662000  0.19135000  1.0
  C  C276  1  0.78430000  0.97291000  0.14715000  1.0
  C  C277  1  0.89530000  0.93678000  0.12267000  1.0
  C  C278  1  0.98660000  0.89276000  0.14355000  1.0
  C  C279  1  0.91900000  0.94634000  0.07460000  1.0
  C  C280  1  0.49960000  0.85830000  0.14442000  1.0
  C  C281  1  0.45500000  0.88851000  0.10736000  1.0
  C  C282  1  0.62430000  0.82818000  0.06628000  1.0
  C  C283  1  0.66910000  0.79756000  0.10301000  1.0
  C  C284  1  0.93500000  0.66348000  0.21018000  1.0
  C  C285  1  0.03070000  0.61453000  0.18827000  1.0
  C  C286  1  0.13940000  0.57706000  0.21232000  1.0
  C  C287  1  0.23210000  0.53338000  0.19135000  1.0
  C  C288  1  0.21570000  0.52709000  0.14715000  1.0
  C  C289  1  0.10470000  0.56322000  0.12267000  1.0
  C  C290  1  0.01340000  0.60724000  0.14355000  1.0
  C  C291  1  0.08100000  0.55366000  0.07460000  1.0
  C  C292  1  0.99960000  0.35830000  0.64442000  1.0
  C  C293  1  0.95500000  0.38851000  0.60736000  1.0
  C  C294  1  0.12430000  0.32818000  0.56628000  1.0
  C  C295  1  0.16910000  0.29756000  0.60301000  1.0
  C  C296  1  0.43500000  0.16348000  0.71018000  1.0
  C  C297  1  0.53070000  0.11453000  0.68827000  1.0
  C  C298  1  0.63940000  0.07706000  0.71232000  1.0
  C  C299  1  0.73210000  0.03338000  0.69135000  1.0
  C  C300  1  0.71570000  0.02709000  0.64715000  1.0
  C  C301  1  0.60470000  0.06322000  0.62267000  1.0
  C  C302  1  0.51340000  0.10724000  0.64355000  1.0
  C  C303  1  0.58100000  0.05366000  0.57460000  1.0
  C  C304  1  0.99960000  0.64170000  0.85558000  1.0
  C  C305  1  0.95500000  0.61149000  0.89264000  1.0
  C  C306  1  0.12430000  0.67182000  0.93372000  1.0
  C  C307  1  0.16910000  0.70244000  0.89699000  1.0
  C  C308  1  0.43500000  0.83652000  0.78982000  1.0
  C  C309  1  0.53070000  0.88547000  0.81173000  1.0
  C  C310  1  0.63940000  0.92294000  0.78768000  1.0
  C  C311  1  0.73210000  0.96662000  0.80865000  1.0
  C  C312  1  0.71570000  0.97291000  0.85285000  1.0
  C  C313  1  0.60470000  0.93678000  0.87733000  1.0
  C  C314  1  0.51340000  0.89276000  0.85645000  1.0
  C  C315  1  0.58100000  0.94634000  0.92540000  1.0
  C  C316  1  0.49960000  0.14170000  0.35558000  1.0
  C  C317  1  0.45500000  0.11149000  0.39264000  1.0
  C  C318  1  0.62430000  0.17182000  0.43372000  1.0
  C  C319  1  0.66910000  0.20244000  0.39699000  1.0
  C  C320  1  0.93500000  0.33652000  0.28982000  1.0
  C  C321  1  0.03070000  0.38547000  0.31173000  1.0
  C  C322  1  0.13940000  0.42294000  0.28768000  1.0
  C  C323  1  0.23210000  0.46662000  0.30865000  1.0
  C  C324  1  0.21570000  0.47291000  0.35285000  1.0
  C  C325  1  0.10470000  0.43678000  0.37733000  1.0
  C  C326  1  0.01340000  0.39276000  0.35645000  1.0
  C  C327  1  0.08100000  0.44634000  0.42540000  1.0
  C  C328  1  0.50040000  0.35830000  0.35558000  1.0
  C  C329  1  0.54500000  0.38851000  0.39264000  1.0
  C  C330  1  0.37570000  0.32818000  0.43372000  1.0
  C  C331  1  0.33090000  0.29756000  0.39699000  1.0
  C  C332  1  0.06500000  0.16348000  0.28982000  1.0
  C  C333  1  0.96930000  0.11453000  0.31173000  1.0
  C  C334  1  0.86060000  0.07706000  0.28768000  1.0
  C  C335  1  0.76790000  0.03338000  0.30865000  1.0
  C  C336  1  0.78430000  0.02709000  0.35285000  1.0
  C  C337  1  0.89530000  0.06322000  0.37733000  1.0
  C  C338  1  0.98660000  0.10724000  0.35645000  1.0
  C  C339  1  0.91900000  0.05366000  0.42540000  1.0
  C  C340  1  0.00040000  0.85830000  0.85558000  1.0
  C  C341  1  0.04500000  0.88851000  0.89264000  1.0
  C  C342  1  0.87570000  0.82818000  0.93372000  1.0
  C  C343  1  0.83090000  0.79756000  0.89699000  1.0
  C  C344  1  0.56500000  0.66348000  0.78982000  1.0
  C  C345  1  0.46930000  0.61453000  0.81173000  1.0
  C  C346  1  0.36060000  0.57706000  0.78768000  1.0
  C  C347  1  0.26790000  0.53338000  0.80865000  1.0
  C  C348  1  0.28430000  0.52709000  0.85285000  1.0
  C  C349  1  0.39530000  0.56322000  0.87733000  1.0
  C  C350  1  0.48660000  0.60724000  0.85645000  1.0
  C  C351  1  0.41900000  0.55366000  0.92540000  1.0
  N  N352  1  0.10760000  0.81258000  0.35764000  1.0
  N  N353  1  0.01720000  0.87425000  0.43158000  1.0
  N  N354  1  0.60760000  0.31258000  0.85764000  1.0
  N  N355  1  0.51720000  0.37425000  0.93158000  1.0
  N  N356  1  0.39240000  0.18742000  0.85764000  1.0
  N  N357  1  0.48280000  0.12575000  0.93158000  1.0
  N  N358  1  0.89240000  0.68742000  0.35764000  1.0
  N  N359  1  0.98280000  0.62575000  0.43158000  1.0
  N  N360  1  0.89240000  0.31258000  0.14236000  1.0
  N  N361  1  0.98280000  0.37425000  0.06842000  1.0
  N  N362  1  0.39240000  0.81258000  0.64236000  1.0
  N  N363  1  0.48280000  0.87425000  0.56842000  1.0
  N  N364  1  0.60760000  0.68742000  0.64236000  1.0
  N  N365  1  0.51720000  0.62575000  0.56842000  1.0
  N  N366  1  0.10760000  0.18742000  0.14236000  1.0
  N  N367  1  0.01720000  0.12575000  0.06842000  1.0
  N  N368  1  0.89240000  0.18742000  0.64236000  1.0
  N  N369  1  0.98280000  0.12575000  0.56842000  1.0
  N  N370  1  0.39240000  0.68742000  0.14236000  1.0
  N  N371  1  0.48280000  0.62575000  0.06842000  1.0
  N  N372  1  0.60760000  0.81258000  0.14236000  1.0
  N  N373  1  0.51720000  0.87425000  0.06842000  1.0
  N  N374  1  0.10760000  0.31258000  0.64236000  1.0
  N  N375  1  0.01720000  0.37425000  0.56842000  1.0
  N  N376  1  0.10760000  0.68742000  0.85764000  1.0
  N  N377  1  0.01720000  0.62575000  0.93158000  1.0
  N  N378  1  0.60760000  0.18742000  0.35764000  1.0
  N  N379  1  0.51720000  0.12575000  0.43158000  1.0
  N  N380  1  0.39240000  0.31258000  0.35764000  1.0
  N  N381  1  0.48280000  0.37425000  0.43158000  1.0
  N  N382  1  0.89240000  0.81258000  0.85764000  1.0
  N  N383  1  0.98280000  0.87425000  0.93158000  1.0
  O  O384  1  0.34500000  0.69583000  0.31401000  1.0
  O  O385  1  0.45380000  0.66720000  0.24919000  1.0
  O  O386  1  0.48230000  0.58781000  0.44642000  1.0
  O  O387  1  0.66120000  0.51125000  0.44156000  1.0
  O  O388  1  0.84500000  0.19583000  0.81401000  1.0
  O  O389  1  0.95380000  0.16720000  0.74919000  1.0
  O  O390  1  0.98230000  0.08781000  0.94642000  1.0
  O  O391  1  0.16120000  0.01125000  0.94156000  1.0
  O  O392  1  0.15500000  0.30417000  0.81401000  1.0
  O  O393  1  0.04620000  0.33280000  0.74919000  1.0
  O  O394  1  0.01770000  0.41219000  0.94642000  1.0
  O  O395  1  0.83880000  0.48875000  0.94156000  1.0
  O  O396  1  0.65500000  0.80417000  0.31401000  1.0
  O  O397  1  0.54620000  0.83280000  0.24919000  1.0
  O  O398  1  0.51770000  0.91219000  0.44642000  1.0
  O  O399  1  0.33880000  0.98875000  0.44156000  1.0
  O  O400  1  0.65500000  0.19583000  0.18599000  1.0
  O  O401  1  0.54620000  0.16720000  0.25081000  1.0
  O  O402  1  0.51770000  0.08781000  0.05358000  1.0
  O  O403  1  0.33880000  0.01125000  0.05844000  1.0
  O  O404  1  0.15500000  0.69583000  0.68599000  1.0
  O  O405  1  0.04620000  0.66720000  0.75081000  1.0
  O  O406  1  0.01770000  0.58781000  0.55358000  1.0
  O  O407  1  0.83880000  0.51125000  0.55844000  1.0
  O  O408  1  0.84500000  0.80417000  0.68599000  1.0
  O  O409  1  0.95380000  0.83280000  0.75081000  1.0
  O  O410  1  0.98230000  0.91219000  0.55358000  1.0
  O  O411  1  0.16120000  0.98875000  0.55844000  1.0
  O  O412  1  0.34500000  0.30417000  0.18599000  1.0
  O  O413  1  0.45380000  0.33280000  0.25081000  1.0
  O  O414  1  0.48230000  0.41219000  0.05358000  1.0
  O  O415  1  0.66120000  0.48875000  0.05844000  1.0
  O  O416  1  0.65500000  0.30417000  0.68599000  1.0
  O  O417  1  0.54620000  0.33280000  0.75081000  1.0
  O  O418  1  0.51770000  0.41219000  0.55358000  1.0
  O  O419  1  0.33880000  0.48875000  0.55844000  1.0
  O  O420  1  0.15500000  0.80417000  0.18599000  1.0
  O  O421  1  0.04620000  0.83280000  0.25081000  1.0
  O  O422  1  0.01770000  0.91219000  0.05358000  1.0
  O  O423  1  0.83880000  0.98875000  0.05844000  1.0
  O  O424  1  0.84500000  0.69583000  0.18599000  1.0
  O  O425  1  0.95380000  0.66720000  0.25081000  1.0
  O  O426  1  0.98230000  0.58781000  0.05358000  1.0
  O  O427  1  0.16120000  0.51125000  0.05844000  1.0
  O  O428  1  0.34500000  0.19583000  0.68599000  1.0
  O  O429  1  0.45380000  0.16720000  0.75081000  1.0
  O  O430  1  0.48230000  0.08781000  0.55358000  1.0
  O  O431  1  0.66120000  0.01125000  0.55844000  1.0
  O  O432  1  0.34500000  0.80417000  0.81401000  1.0
  O  O433  1  0.45380000  0.83280000  0.74919000  1.0
  O  O434  1  0.48230000  0.91219000  0.94642000  1.0
  O  O435  1  0.66120000  0.98875000  0.94156000  1.0
  O  O436  1  0.84500000  0.30417000  0.31401000  1.0
  O  O437  1  0.95380000  0.33280000  0.24919000  1.0
  O  O438  1  0.98230000  0.41219000  0.44642000  1.0
  O  O439  1  0.16120000  0.48875000  0.44156000  1.0
  O  O440  1  0.15500000  0.19583000  0.31401000  1.0
  O  O441  1  0.04620000  0.16720000  0.24919000  1.0
  O  O442  1  0.01770000  0.08781000  0.44642000  1.0
  O  O443  1  0.83880000  0.01125000  0.44156000  1.0
  O  O444  1  0.65500000  0.69583000  0.81401000  1.0
  O  O445  1  0.54620000  0.66720000  0.74919000  1.0
  O  O446  1  0.51770000  0.58781000  0.94642000  1.0
  O  O447  1  0.33880000  0.51125000  0.94156000  1.0
