# generated using pymatgen
data_AgH4C6NO2
_symmetry_space_group_name_H-M   'P 1'
_cell_length_a   7.16200000
_cell_length_b   23.76510000
_cell_length_c   30.70490000
_cell_angle_alpha   90.00000000
_cell_angle_beta   90.00000000
_cell_angle_gamma   90.00000000
_symmetry_Int_Tables_number   1
_chemical_formula_structural   AgH4C6NO2
_chemical_formula_sum   'Ag32 H128 C192 N32 O64'
_cell_volume   5226.14734601
_cell_formula_units_Z   32
loop_
 _symmetry_equiv_pos_site_id
 _symmetry_equiv_pos_as_xyz
  1  'x, y, z'
loop_
 _atom_site_type_symbol
 _atom_site_label
 _atom_site_symmetry_multiplicity
 _atom_site_fract_x
 _atom_site_fract_y
 _atom_site_fract_z
 _atom_site_occupancy
  Ag  Ag0  1  0.19536000  0.77004000  0.29075000  1.0
  Ag  Ag1  1  0.53163000  0.44291000  0.48420000  1.0
  Ag  Ag2  1  0.69536000  0.27004000  0.79075000  1.0
  Ag  Ag3  1  0.03163000  0.94291000  0.98420000  1.0
  Ag  Ag4  1  0.30464000  0.22996000  0.79075000  1.0
  Ag  Ag5  1  0.96837000  0.55709000  0.98420000  1.0
  Ag  Ag6  1  0.80464000  0.72996000  0.29075000  1.0
  Ag  Ag7  1  0.46837000  0.05709000  0.48420000  1.0
  Ag  Ag8  1  0.80464000  0.27004000  0.20925000  1.0
  Ag  Ag9  1  0.46837000  0.94291000  0.01580000  1.0
  Ag  Ag10  1  0.30464000  0.77004000  0.70925000  1.0
  Ag  Ag11  1  0.96837000  0.44291000  0.51580000  1.0
  Ag  Ag12  1  0.69536000  0.72996000  0.70925000  1.0
  Ag  Ag13  1  0.03163000  0.05709000  0.51580000  1.0
  Ag  Ag14  1  0.19536000  0.22996000  0.20925000  1.0
  Ag  Ag15  1  0.53163000  0.55709000  0.01580000  1.0
  Ag  Ag16  1  0.80464000  0.22996000  0.70925000  1.0
  Ag  Ag17  1  0.46837000  0.55709000  0.51580000  1.0
  Ag  Ag18  1  0.30464000  0.72996000  0.20925000  1.0
  Ag  Ag19  1  0.96837000  0.05709000  0.01580000  1.0
  Ag  Ag20  1  0.69536000  0.77004000  0.20925000  1.0
  Ag  Ag21  1  0.03163000  0.44291000  0.01580000  1.0
  Ag  Ag22  1  0.19536000  0.27004000  0.70925000  1.0
  Ag  Ag23  1  0.53163000  0.94291000  0.51580000  1.0
  Ag  Ag24  1  0.19536000  0.72996000  0.79075000  1.0
  Ag  Ag25  1  0.53163000  0.05709000  0.98420000  1.0
  Ag  Ag26  1  0.69536000  0.22996000  0.29075000  1.0
  Ag  Ag27  1  0.03163000  0.55709000  0.48420000  1.0
  Ag  Ag28  1  0.30464000  0.27004000  0.29075000  1.0
  Ag  Ag29  1  0.96837000  0.94291000  0.48420000  1.0
  Ag  Ag30  1  0.80464000  0.77004000  0.79075000  1.0
  Ag  Ag31  1  0.46837000  0.44291000  0.98420000  1.0
  H  H32  1  0.95140000  0.87020000  0.32810000  1.0
  H  H33  1  0.87700000  0.92040000  0.39010000  1.0
  H  H34  1  0.16840000  0.81610000  0.46100000  1.0
  H  H35  1  0.24530000  0.76520000  0.39990000  1.0
  H  H36  1  0.65150000  0.58120000  0.25710000  1.0
  H  H37  1  0.80770000  0.50820000  0.29260000  1.0
  H  H38  1  0.78020000  0.49750000  0.36680000  1.0
  H  H39  1  0.44060000  0.63300000  0.37300000  1.0
  H  H40  1  0.45140000  0.37020000  0.82810000  1.0
  H  H41  1  0.37700000  0.42040000  0.89010000  1.0
  H  H42  1  0.66840000  0.31610000  0.96100000  1.0
  H  H43  1  0.74530000  0.26520000  0.89990000  1.0
  H  H44  1  0.15150000  0.08120000  0.75710000  1.0
  H  H45  1  0.30770000  0.00820000  0.79260000  1.0
  H  H46  1  0.28020000  0.99750000  0.86680000  1.0
  H  H47  1  0.94060000  0.13300000  0.87300000  1.0
  H  H48  1  0.54860000  0.12980000  0.82810000  1.0
  H  H49  1  0.62300000  0.07960000  0.89010000  1.0
  H  H50  1  0.33160000  0.18390000  0.96100000  1.0
  H  H51  1  0.25470000  0.23480000  0.89990000  1.0
  H  H52  1  0.84850000  0.41880000  0.75710000  1.0
  H  H53  1  0.69230000  0.49180000  0.79260000  1.0
  H  H54  1  0.71980000  0.50250000  0.86680000  1.0
  H  H55  1  0.05940000  0.36700000  0.87300000  1.0
  H  H56  1  0.04860000  0.62980000  0.32810000  1.0
  H  H57  1  0.12300000  0.57960000  0.39010000  1.0
  H  H58  1  0.83160000  0.68390000  0.46100000  1.0
  H  H59  1  0.75470000  0.73480000  0.39990000  1.0
  H  H60  1  0.34850000  0.91880000  0.25710000  1.0
  H  H61  1  0.19230000  0.99180000  0.29260000  1.0
  H  H62  1  0.21980000  0.00250000  0.36680000  1.0
  H  H63  1  0.55940000  0.86700000  0.37300000  1.0
  H  H64  1  0.04860000  0.37020000  0.17190000  1.0
  H  H65  1  0.12300000  0.42040000  0.10990000  1.0
  H  H66  1  0.83160000  0.31610000  0.03900000  1.0
  H  H67  1  0.75470000  0.26520000  0.10010000  1.0
  H  H68  1  0.34850000  0.08120000  0.24290000  1.0
  H  H69  1  0.19230000  0.00820000  0.20740000  1.0
  H  H70  1  0.21980000  0.99750000  0.13320000  1.0
  H  H71  1  0.55940000  0.13300000  0.12700000  1.0
  H  H72  1  0.54860000  0.87020000  0.67190000  1.0
  H  H73  1  0.62300000  0.92040000  0.60990000  1.0
  H  H74  1  0.33160000  0.81610000  0.53900000  1.0
  H  H75  1  0.25470000  0.76520000  0.60010000  1.0
  H  H76  1  0.84850000  0.58120000  0.74290000  1.0
  H  H77  1  0.69230000  0.50820000  0.70740000  1.0
  H  H78  1  0.71980000  0.49750000  0.63320000  1.0
  H  H79  1  0.05940000  0.63300000  0.62700000  1.0
  H  H80  1  0.45140000  0.62980000  0.67190000  1.0
  H  H81  1  0.37700000  0.57960000  0.60990000  1.0
  H  H82  1  0.66840000  0.68390000  0.53900000  1.0
  H  H83  1  0.74530000  0.73480000  0.60010000  1.0
  H  H84  1  0.15150000  0.91880000  0.74290000  1.0
  H  H85  1  0.30770000  0.99180000  0.70740000  1.0
  H  H86  1  0.28020000  0.00250000  0.63320000  1.0
  H  H87  1  0.94060000  0.86700000  0.62700000  1.0
  H  H88  1  0.95140000  0.12980000  0.17190000  1.0
  H  H89  1  0.87700000  0.07960000  0.10990000  1.0
  H  H90  1  0.16840000  0.18390000  0.03900000  1.0
  H  H91  1  0.24530000  0.23480000  0.10010000  1.0
  H  H92  1  0.65150000  0.41880000  0.24290000  1.0
  H  H93  1  0.80770000  0.49180000  0.20740000  1.0
  H  H94  1  0.78020000  0.50250000  0.13320000  1.0
  H  H95  1  0.44060000  0.36700000  0.12700000  1.0
  H  H96  1  0.04860000  0.12980000  0.67190000  1.0
  H  H97  1  0.12300000  0.07960000  0.60990000  1.0
  H  H98  1  0.83160000  0.18390000  0.53900000  1.0
  H  H99  1  0.75470000  0.23480000  0.60010000  1.0
  H  H100  1  0.34850000  0.41880000  0.74290000  1.0
  H  H101  1  0.19230000  0.49180000  0.70740000  1.0
  H  H102  1  0.21980000  0.50250000  0.63320000  1.0
  H  H103  1  0.55940000  0.36700000  0.62700000  1.0
  H  H104  1  0.54860000  0.62980000  0.17190000  1.0
  H  H105  1  0.62300000  0.57960000  0.10990000  1.0
  H  H106  1  0.33160000  0.68390000  0.03900000  1.0
  H  H107  1  0.25470000  0.73480000  0.10010000  1.0
  H  H108  1  0.84850000  0.91880000  0.24290000  1.0
  H  H109  1  0.69230000  0.99180000  0.20740000  1.0
  H  H110  1  0.71980000  0.00250000  0.13320000  1.0
  H  H111  1  0.05940000  0.86700000  0.12700000  1.0
  H  H112  1  0.45140000  0.87020000  0.17190000  1.0
  H  H113  1  0.37700000  0.92040000  0.10990000  1.0
  H  H114  1  0.66840000  0.81610000  0.03900000  1.0
  H  H115  1  0.74530000  0.76520000  0.10010000  1.0
  H  H116  1  0.15150000  0.58120000  0.24290000  1.0
  H  H117  1  0.30770000  0.50820000  0.20740000  1.0
  H  H118  1  0.28020000  0.49750000  0.13320000  1.0
  H  H119  1  0.94060000  0.63300000  0.12700000  1.0
  H  H120  1  0.95140000  0.37020000  0.67190000  1.0
  H  H121  1  0.87700000  0.42040000  0.60990000  1.0
  H  H122  1  0.16840000  0.31610000  0.53900000  1.0
  H  H123  1  0.24530000  0.26520000  0.60010000  1.0
  H  H124  1  0.65150000  0.08120000  0.74290000  1.0
  H  H125  1  0.80770000  0.00820000  0.70740000  1.0
  H  H126  1  0.78020000  0.99750000  0.63320000  1.0
  H  H127  1  0.44060000  0.13300000  0.62700000  1.0
  H  H128  1  0.95140000  0.62980000  0.82810000  1.0
  H  H129  1  0.87700000  0.57960000  0.89010000  1.0
  H  H130  1  0.16840000  0.68390000  0.96100000  1.0
  H  H131  1  0.24530000  0.73480000  0.89990000  1.0
  H  H132  1  0.65150000  0.91880000  0.75710000  1.0
  H  H133  1  0.80770000  0.99180000  0.79260000  1.0
  H  H134  1  0.78020000  0.00250000  0.86680000  1.0
  H  H135  1  0.44060000  0.86700000  0.87300000  1.0
  H  H136  1  0.45140000  0.12980000  0.32810000  1.0
  H  H137  1  0.37700000  0.07960000  0.39010000  1.0
  H  H138  1  0.66840000  0.18390000  0.46100000  1.0
  H  H139  1  0.74530000  0.23480000  0.39990000  1.0
  H  H140  1  0.15150000  0.41880000  0.25710000  1.0
  H  H141  1  0.30770000  0.49180000  0.29260000  1.0
  H  H142  1  0.28020000  0.50250000  0.36680000  1.0
  H  H143  1  0.94060000  0.36700000  0.37300000  1.0
  H  H144  1  0.54860000  0.37020000  0.32810000  1.0
  H  H145  1  0.62300000  0.42040000  0.39010000  1.0
  H  H146  1  0.33160000  0.31610000  0.46100000  1.0
  H  H147  1  0.25470000  0.26520000  0.39990000  1.0
  H  H148  1  0.84850000  0.08120000  0.25710000  1.0
  H  H149  1  0.69230000  0.00820000  0.29260000  1.0
  H  H150  1  0.71980000  0.99750000  0.36680000  1.0
  H  H151  1  0.05940000  0.13300000  0.37300000  1.0
  H  H152  1  0.04860000  0.87020000  0.82810000  1.0
  H  H153  1  0.12300000  0.92040000  0.89010000  1.0
  H  H154  1  0.83160000  0.81610000  0.96100000  1.0
  H  H155  1  0.75470000  0.76520000  0.89990000  1.0
  H  H156  1  0.34850000  0.58120000  0.75710000  1.0
  H  H157  1  0.19230000  0.50820000  0.79260000  1.0
  H  H158  1  0.21980000  0.49750000  0.86680000  1.0
  H  H159  1  0.55940000  0.63300000  0.87300000  1.0
  C  C160  1  0.99890000  0.85820000  0.35540000  1.0
  C  C161  1  0.95500000  0.88830000  0.39270000  1.0
  C  C162  1  0.12280000  0.82820000  0.43352000  1.0
  C  C163  1  0.16850000  0.79760000  0.39699000  1.0
  C  C164  1  0.43470000  0.66370000  0.29000000  1.0
  C  C165  1  0.53070000  0.61440000  0.31172000  1.0
  C  C166  1  0.64020000  0.57700000  0.28780000  1.0
  C  C167  1  0.73240000  0.53360000  0.30880000  1.0
  C  C168  1  0.71520000  0.52720000  0.35270000  1.0
  C  C169  1  0.60490000  0.56320000  0.37750000  1.0
  C  C170  1  0.51420000  0.60740000  0.35658000  1.0
  C  C171  1  0.58230000  0.55390000  0.42520000  1.0
  C  C172  1  0.49890000  0.35820000  0.85540000  1.0
  C  C173  1  0.45500000  0.38830000  0.89270000  1.0
  C  C174  1  0.62280000  0.32820000  0.93352000  1.0
  C  C175  1  0.66850000  0.29760000  0.89699000  1.0
  C  C176  1  0.93470000  0.16370000  0.79000000  1.0
  C  C177  1  0.03070000  0.11440000  0.81172000  1.0
  C  C178  1  0.14020000  0.07700000  0.78780000  1.0
  C  C179  1  0.23240000  0.03360000  0.80880000  1.0
  C  C180  1  0.21520000  0.02720000  0.85270000  1.0
  C  C181  1  0.10490000  0.06320000  0.87750000  1.0
  C  C182  1  0.01420000  0.10740000  0.85658000  1.0
  C  C183  1  0.08230000  0.05390000  0.92520000  1.0
  C  C184  1  0.50110000  0.14180000  0.85540000  1.0
  C  C185  1  0.54500000  0.11170000  0.89270000  1.0
  C  C186  1  0.37720000  0.17180000  0.93352000  1.0
  C  C187  1  0.33150000  0.20240000  0.89699000  1.0
  C  C188  1  0.06530000  0.33630000  0.79000000  1.0
  C  C189  1  0.96930000  0.38560000  0.81172000  1.0
  C  C190  1  0.85980000  0.42300000  0.78780000  1.0
  C  C191  1  0.76760000  0.46640000  0.80880000  1.0
  C  C192  1  0.78480000  0.47280000  0.85270000  1.0
  C  C193  1  0.89510000  0.43680000  0.87750000  1.0
  C  C194  1  0.98580000  0.39260000  0.85658000  1.0
  C  C195  1  0.91770000  0.44610000  0.92520000  1.0
  C  C196  1  0.00110000  0.64180000  0.35540000  1.0
  C  C197  1  0.04500000  0.61170000  0.39270000  1.0
  C  C198  1  0.87720000  0.67180000  0.43352000  1.0
  C  C199  1  0.83150000  0.70240000  0.39699000  1.0
  C  C200  1  0.56530000  0.83630000  0.29000000  1.0
  C  C201  1  0.46930000  0.88560000  0.31172000  1.0
  C  C202  1  0.35980000  0.92300000  0.28780000  1.0
  C  C203  1  0.26760000  0.96640000  0.30880000  1.0
  C  C204  1  0.28480000  0.97280000  0.35270000  1.0
  C  C205  1  0.39510000  0.93680000  0.37750000  1.0
  C  C206  1  0.48580000  0.89260000  0.35658000  1.0
  C  C207  1  0.41770000  0.94610000  0.42520000  1.0
  C  C208  1  0.00110000  0.35820000  0.14460000  1.0
  C  C209  1  0.04500000  0.38830000  0.10730000  1.0
  C  C210  1  0.87720000  0.32820000  0.06648000  1.0
  C  C211  1  0.83150000  0.29760000  0.10301000  1.0
  C  C212  1  0.56530000  0.16370000  0.21000000  1.0
  C  C213  1  0.46930000  0.11440000  0.18828000  1.0
  C  C214  1  0.35980000  0.07700000  0.21220000  1.0
  C  C215  1  0.26760000  0.03360000  0.19120000  1.0
  C  C216  1  0.28480000  0.02720000  0.14730000  1.0
  C  C217  1  0.39510000  0.06320000  0.12250000  1.0
  C  C218  1  0.48580000  0.10740000  0.14342000  1.0
  C  C219  1  0.41770000  0.05390000  0.07480000  1.0
  C  C220  1  0.50110000  0.85820000  0.64460000  1.0
  C  C221  1  0.54500000  0.88830000  0.60730000  1.0
  C  C222  1  0.37720000  0.82820000  0.56648000  1.0
  C  C223  1  0.33150000  0.79760000  0.60301000  1.0
  C  C224  1  0.06530000  0.66370000  0.71000000  1.0
  C  C225  1  0.96930000  0.61440000  0.68828000  1.0
  C  C226  1  0.85980000  0.57700000  0.71220000  1.0
  C  C227  1  0.76760000  0.53360000  0.69120000  1.0
  C  C228  1  0.78480000  0.52720000  0.64730000  1.0
  C  C229  1  0.89510000  0.56320000  0.62250000  1.0
  C  C230  1  0.98580000  0.60740000  0.64342000  1.0
  C  C231  1  0.91770000  0.55390000  0.57480000  1.0
  C  C232  1  0.49890000  0.64180000  0.64460000  1.0
  C  C233  1  0.45500000  0.61170000  0.60730000  1.0
  C  C234  1  0.62280000  0.67180000  0.56648000  1.0
  C  C235  1  0.66850000  0.70240000  0.60301000  1.0
  C  C236  1  0.93470000  0.83630000  0.71000000  1.0
  C  C237  1  0.03070000  0.88560000  0.68828000  1.0
  C  C238  1  0.14020000  0.92300000  0.71220000  1.0
  C  C239  1  0.23240000  0.96640000  0.69120000  1.0
  C  C240  1  0.21520000  0.97280000  0.64730000  1.0
  C  C241  1  0.10490000  0.93680000  0.62250000  1.0
  C  C242  1  0.01420000  0.89260000  0.64342000  1.0
  C  C243  1  0.08230000  0.94610000  0.57480000  1.0
  C  C244  1  0.99890000  0.14180000  0.14460000  1.0
  C  C245  1  0.95500000  0.11170000  0.10730000  1.0
  C  C246  1  0.12280000  0.17180000  0.06648000  1.0
  C  C247  1  0.16850000  0.20240000  0.10301000  1.0
  C  C248  1  0.43470000  0.33630000  0.21000000  1.0
  C  C249  1  0.53070000  0.38560000  0.18828000  1.0
  C  C250  1  0.64020000  0.42300000  0.21220000  1.0
  C  C251  1  0.73240000  0.46640000  0.19120000  1.0
  C  C252  1  0.71520000  0.47280000  0.14730000  1.0
  C  C253  1  0.60490000  0.43680000  0.12250000  1.0
  C  C254  1  0.51420000  0.39260000  0.14342000  1.0
  C  C255  1  0.58230000  0.44610000  0.07480000  1.0
  C  C256  1  0.00110000  0.14180000  0.64460000  1.0
  C  C257  1  0.04500000  0.11170000  0.60730000  1.0
  C  C258  1  0.87720000  0.17180000  0.56648000  1.0
  C  C259  1  0.83150000  0.20240000  0.60301000  1.0
  C  C260  1  0.56530000  0.33630000  0.71000000  1.0
  C  C261  1  0.46930000  0.38560000  0.68828000  1.0
  C  C262  1  0.35980000  0.42300000  0.71220000  1.0
  C  C263  1  0.26760000  0.46640000  0.69120000  1.0
  C  C264  1  0.28480000  0.47280000  0.64730000  1.0
  C  C265  1  0.39510000  0.43680000  0.62250000  1.0
  C  C266  1  0.48580000  0.39260000  0.64342000  1.0
  C  C267  1  0.41770000  0.44610000  0.57480000  1.0
  C  C268  1  0.50110000  0.64180000  0.14460000  1.0
  C  C269  1  0.54500000  0.61170000  0.10730000  1.0
  C  C270  1  0.37720000  0.67180000  0.06648000  1.0
  C  C271  1  0.33150000  0.70240000  0.10301000  1.0
  C  C272  1  0.06530000  0.83630000  0.21000000  1.0
  C  C273  1  0.96930000  0.88560000  0.18828000  1.0
  C  C274  1  0.85980000  0.92300000  0.21220000  1.0
  C  C275  1  0.76760000  0.96640000  0.19120000  1.0
  C  C276  1  0.78480000  0.97280000  0.14730000  1.0
  C  C277  1  0.89510000  0.93680000  0.12250000  1.0
  C  C278  1  0.98580000  0.89260000  0.14342000  1.0
  C  C279  1  0.91770000  0.94610000  0.07480000  1.0
  C  C280  1  0.49890000  0.85820000  0.14460000  1.0
  C  C281  1  0.45500000  0.88830000  0.10730000  1.0
  C  C282  1  0.62280000  0.82820000  0.06648000  1.0
  C  C283  1  0.66850000  0.79760000  0.10301000  1.0
  C  C284  1  0.93470000  0.66370000  0.21000000  1.0
  C  C285  1  0.03070000  0.61440000  0.18828000  1.0
  C  C286  1  0.14020000  0.57700000  0.21220000  1.0
  C  C287  1  0.23240000  0.53360000  0.19120000  1.0
  C  C288  1  0.21520000  0.52720000  0.14730000  1.0
  C  C289  1  0.10490000  0.56320000  0.12250000  1.0
  C  C290  1  0.01420000  0.60740000  0.14342000  1.0
  C  C291  1  0.08230000  0.55390000  0.07480000  1.0
  C  C292  1  0.99890000  0.35820000  0.64460000  1.0
  C  C293  1  0.95500000  0.38830000  0.60730000  1.0
  C  C294  1  0.12280000  0.32820000  0.56648000  1.0
  C  C295  1  0.16850000  0.29760000  0.60301000  1.0
  C  C296  1  0.43470000  0.16370000  0.71000000  1.0
  C  C297  1  0.53070000  0.11440000  0.68828000  1.0
  C  C298  1  0.64020000  0.07700000  0.71220000  1.0
  C  C299  1  0.73240000  0.03360000  0.69120000  1.0
  C  C300  1  0.71520000  0.02720000  0.64730000  1.0
  C  C301  1  0.60490000  0.06320000  0.62250000  1.0
  C  C302  1  0.51420000  0.10740000  0.64342000  1.0
  C  C303  1  0.58230000  0.05390000  0.57480000  1.0
  C  C304  1  0.99890000  0.64180000  0.85540000  1.0
  C  C305  1  0.95500000  0.61170000  0.89270000  1.0
  C  C306  1  0.12280000  0.67180000  0.93352000  1.0
  C  C307  1  0.16850000  0.70240000  0.89699000  1.0
  C  C308  1  0.43470000  0.83630000  0.79000000  1.0
  C  C309  1  0.53070000  0.88560000  0.81172000  1.0
  C  C310  1  0.64020000  0.92300000  0.78780000  1.0
  C  C311  1  0.73240000  0.96640000  0.80880000  1.0
  C  C312  1  0.71520000  0.97280000  0.85270000  1.0
  C  C313  1  0.60490000  0.93680000  0.87750000  1.0
  C  C314  1  0.51420000  0.89260000  0.85658000  1.0
  C  C315  1  0.58230000  0.94610000  0.92520000  1.0
  C  C316  1  0.49890000  0.14180000  0.35540000  1.0
  C  C317  1  0.45500000  0.11170000  0.39270000  1.0
  C  C318  1  0.62280000  0.17180000  0.43352000  1.0
  C  C319  1  0.66850000  0.20240000  0.39699000  1.0
  C  C320  1  0.93470000  0.33630000  0.29000000  1.0
  C  C321  1  0.03070000  0.38560000  0.31172000  1.0
  C  C322  1  0.14020000  0.42300000  0.28780000  1.0
  C  C323  1  0.23240000  0.46640000  0.30880000  1.0
  C  C324  1  0.21520000  0.47280000  0.35270000  1.0
  C  C325  1  0.10490000  0.43680000  0.37750000  1.0
  C  C326  1  0.01420000  0.39260000  0.35658000  1.0
  C  C327  1  0.08230000  0.44610000  0.42520000  1.0
  C  C328  1  0.50110000  0.35820000  0.35540000  1.0
  C  C329  1  0.54500000  0.38830000  0.39270000  1.0
  C  C330  1  0.37720000  0.32820000  0.43352000  1.0
  C  C331  1  0.33150000  0.29760000  0.39699000  1.0
  C  C332  1  0.06530000  0.16370000  0.29000000  1.0
  C  C333  1  0.96930000  0.11440000  0.31172000  1.0
  C  C334  1  0.85980000  0.07700000  0.28780000  1.0
  C  C335  1  0.76760000  0.03360000  0.30880000  1.0
  C  C336  1  0.78480000  0.02720000  0.35270000  1.0
  C  C337  1  0.89510000  0.06320000  0.37750000  1.0
  C  C338  1  0.98580000  0.10740000  0.35658000  1.0
  C  C339  1  0.91770000  0.05390000  0.42520000  1.0
  C  C340  1  0.00110000  0.85820000  0.85540000  1.0
  C  C341  1  0.04500000  0.88830000  0.89270000  1.0
  C  C342  1  0.87720000  0.82820000  0.93352000  1.0
  C  C343  1  0.83150000  0.79760000  0.89699000  1.0
  C  C344  1  0.56530000  0.66370000  0.79000000  1.0
  C  C345  1  0.46930000  0.61440000  0.81172000  1.0
  C  C346  1  0.35980000  0.57700000  0.78780000  1.0
  C  C347  1  0.26760000  0.53360000  0.80880000  1.0
  C  C348  1  0.28480000  0.52720000  0.85270000  1.0
  C  C349  1  0.39510000  0.56320000  0.87750000  1.0
  C  C350  1  0.48580000  0.60740000  0.85658000  1.0
  C  C351  1  0.41770000  0.55390000  0.92520000  1.0
  N  N352  1  0.10750000  0.81238000  0.35755000  1.0
  N  N353  1  0.01680000  0.87420000  0.43163000  1.0
  N  N354  1  0.60750000  0.31238000  0.85755000  1.0
  N  N355  1  0.51680000  0.37420000  0.93163000  1.0
  N  N356  1  0.39250000  0.18762000  0.85755000  1.0
  N  N357  1  0.48320000  0.12580000  0.93163000  1.0
  N  N358  1  0.89250000  0.68762000  0.35755000  1.0
  N  N359  1  0.98320000  0.62580000  0.43163000  1.0
  N  N360  1  0.89250000  0.31238000  0.14245000  1.0
  N  N361  1  0.98320000  0.37420000  0.06837000  1.0
  N  N362  1  0.39250000  0.81238000  0.64245000  1.0
  N  N363  1  0.48320000  0.87420000  0.56837000  1.0
  N  N364  1  0.60750000  0.68762000  0.64245000  1.0
  N  N365  1  0.51680000  0.62580000  0.56837000  1.0
  N  N366  1  0.10750000  0.18762000  0.14245000  1.0
  N  N367  1  0.01680000  0.12580000  0.06837000  1.0
  N  N368  1  0.89250000  0.18762000  0.64245000  1.0
  N  N369  1  0.98320000  0.12580000  0.56837000  1.0
  N  N370  1  0.39250000  0.68762000  0.14245000  1.0
  N  N371  1  0.48320000  0.62580000  0.06837000  1.0
  N  N372  1  0.60750000  0.81238000  0.14245000  1.0
  N  N373  1  0.51680000  0.87420000  0.06837000  1.0
  N  N374  1  0.10750000  0.31238000  0.64245000  1.0
  N  N375  1  0.01680000  0.37420000  0.56837000  1.0
  N  N376  1  0.10750000  0.68762000  0.85755000  1.0
  N  N377  1  0.01680000  0.62580000  0.93163000  1.0
  N  N378  1  0.60750000  0.18762000  0.35755000  1.0
  N  N379  1  0.51680000  0.12580000  0.43163000  1.0
  N  N380  1  0.39250000  0.31238000  0.35755000  1.0
  N  N381  1  0.48320000  0.37420000  0.43163000  1.0
  N  N382  1  0.89250000  0.81238000  0.85755000  1.0
  N  N383  1  0.98320000  0.87420000  0.93163000  1.0
  O  O384  1  0.34510000  0.69591000  0.31410000  1.0
  O  O385  1  0.45330000  0.66706000  0.24915000  1.0
  O  O386  1  0.48220000  0.58797000  0.44675000  1.0
  O  O387  1  0.66040000  0.51114000  0.44156000  1.0
  O  O388  1  0.84510000  0.19591000  0.81410000  1.0
  O  O389  1  0.95330000  0.16706000  0.74915000  1.0
  O  O390  1  0.98220000  0.08797000  0.94675000  1.0
  O  O391  1  0.16040000  0.01114000  0.94156000  1.0
  O  O392  1  0.15490000  0.30409000  0.81410000  1.0
  O  O393  1  0.04670000  0.33294000  0.74915000  1.0
  O  O394  1  0.01780000  0.41203000  0.94675000  1.0
  O  O395  1  0.83960000  0.48886000  0.94156000  1.0
  O  O396  1  0.65490000  0.80409000  0.31410000  1.0
  O  O397  1  0.54670000  0.83294000  0.24915000  1.0
  O  O398  1  0.51780000  0.91203000  0.44675000  1.0
  O  O399  1  0.33960000  0.98886000  0.44156000  1.0
  O  O400  1  0.65490000  0.19591000  0.18590000  1.0
  O  O401  1  0.54670000  0.16706000  0.25085000  1.0
  O  O402  1  0.51780000  0.08797000  0.05325000  1.0
  O  O403  1  0.33960000  0.01114000  0.05844000  1.0
  O  O404  1  0.15490000  0.69591000  0.68590000  1.0
  O  O405  1  0.04670000  0.66706000  0.75085000  1.0
  O  O406  1  0.01780000  0.58797000  0.55325000  1.0
  O  O407  1  0.83960000  0.51114000  0.55844000  1.0
  O  O408  1  0.84510000  0.80409000  0.68590000  1.0
  O  O409  1  0.95330000  0.83294000  0.75085000  1.0
  O  O410  1  0.98220000  0.91203000  0.55325000  1.0
  O  O411  1  0.16040000  0.98886000  0.55844000  1.0
  O  O412  1  0.34510000  0.30409000  0.18590000  1.0
  O  O413  1  0.45330000  0.33294000  0.25085000  1.0
  O  O414  1  0.48220000  0.41203000  0.05325000  1.0
  O  O415  1  0.66040000  0.48886000  0.05844000  1.0
  O  O416  1  0.65490000  0.30409000  0.68590000  1.0
  O  O417  1  0.54670000  0.33294000  0.75085000  1.0
  O  O418  1  0.51780000  0.41203000  0.55325000  1.0
  O  O419  1  0.33960000  0.48886000  0.55844000  1.0
  O  O420  1  0.15490000  0.80409000  0.18590000  1.0
  O  O421  1  0.04670000  0.83294000  0.25085000  1.0
  O  O422  1  0.01780000  0.91203000  0.05325000  1.0
  O  O423  1  0.83960000  0.98886000  0.05844000  1.0
  O  O424  1  0.84510000  0.69591000  0.18590000  1.0
  O  O425  1  0.95330000  0.66706000  0.25085000  1.0
  O  O426  1  0.98220000  0.58797000  0.05325000  1.0
  O  O427  1  0.16040000  0.51114000  0.05844000  1.0
  O  O428  1  0.34510000  0.19591000  0.68590000  1.0
  O  O429  1  0.45330000  0.16706000  0.75085000  1.0
  O  O430  1  0.48220000  0.08797000  0.55325000  1.0
  O  O431  1  0.66040000  0.01114000  0.55844000  1.0
  O  O432  1  0.34510000  0.80409000  0.81410000  1.0
  O  O433  1  0.45330000  0.83294000  0.74915000  1.0
  O  O434  1  0.48220000  0.91203000  0.94675000  1.0
  O  O435  1  0.66040000  0.98886000  0.94156000  1.0
  O  O436  1  0.84510000  0.30409000  0.31410000  1.0
  O  O437  1  0.95330000  0.33294000  0.24915000  1.0
  O  O438  1  0.98220000  0.41203000  0.44675000  1.0
  O  O439  1  0.16040000  0.48886000  0.44156000  1.0
  O  O440  1  0.15490000  0.19591000  0.31410000  1.0
  O  O441  1  0.04670000  0.16706000  0.24915000  1.0
  O  O442  1  0.01780000  0.08797000  0.44675000  1.0
  O  O443  1  0.83960000  0.01114000  0.44156000  1.0
  O  O444  1  0.65490000  0.69591000  0.81410000  1.0
  O  O445  1  0.54670000  0.66706000  0.74915000  1.0
  O  O446  1  0.51780000  0.58797000  0.94675000  1.0
  O  O447  1  0.33960000  0.51114000  0.94156000  1.0
