# generated using pymatgen
data_CdH4C8ClO4
_symmetry_space_group_name_H-M   'P 1'
_cell_length_a   15.04120000
_cell_length_b   15.89190000
_cell_length_c   28.22100000
_cell_angle_alpha   90.00000000
_cell_angle_beta   90.00000000
_cell_angle_gamma   90.00000000
_symmetry_Int_Tables_number   1
_chemical_formula_structural   CdH4C8ClO4
_chemical_formula_sum   'Cd16 H64 C128 Cl16 O64'
_cell_volume   6745.75724327
_cell_formula_units_Z   16
loop_
 _symmetry_equiv_pos_site_id
 _symmetry_equiv_pos_as_xyz
  1  'x, y, z'
loop_
 _atom_site_type_symbol
 _atom_site_label
 _atom_site_symmetry_multiplicity
 _atom_site_fract_x
 _atom_site_fract_y
 _atom_site_fract_z
 _atom_site_occupancy
  Cd  Cd0  1  0.00310000  0.12500000  0.12500000  1.0
  Cd  Cd1  1  0.00310000  0.62500000  0.62500000  1.0
  Cd  Cd2  1  0.50310000  0.12500000  0.62500000  1.0
  Cd  Cd3  1  0.74690000  0.62500000  0.12500000  1.0
  Cd  Cd4  1  0.24690000  0.62500000  0.62500000  1.0
  Cd  Cd5  1  0.74690000  0.12500000  0.62500000  1.0
  Cd  Cd6  1  0.24690000  0.12500000  0.12500000  1.0
  Cd  Cd7  1  0.50310000  0.62500000  0.12500000  1.0
  Cd  Cd8  1  0.99690000  0.87500000  0.87500000  1.0
  Cd  Cd9  1  0.99690000  0.37500000  0.37500000  1.0
  Cd  Cd10  1  0.49690000  0.87500000  0.37500000  1.0
  Cd  Cd11  1  0.25310000  0.37500000  0.87500000  1.0
  Cd  Cd12  1  0.75310000  0.37500000  0.37500000  1.0
  Cd  Cd13  1  0.25310000  0.87500000  0.37500000  1.0
  Cd  Cd14  1  0.75310000  0.87500000  0.87500000  1.0
  Cd  Cd15  1  0.49690000  0.37500000  0.87500000  1.0
  H  H16  1  0.78250000  0.32660000  0.06810000  1.0
  H  H17  1  0.83090000  0.12990000  0.98210000  1.0
  H  H18  1  0.78250000  0.82660000  0.56810000  1.0
  H  H19  1  0.83090000  0.62990000  0.48210000  1.0
  H  H20  1  0.28250000  0.32660000  0.56810000  1.0
  H  H21  1  0.33090000  0.12990000  0.48210000  1.0
  H  H22  1  0.28250000  0.82660000  0.06810000  1.0
  H  H23  1  0.33090000  0.62990000  0.98210000  1.0
  H  H24  1  0.96750000  0.42340000  0.06810000  1.0
  H  H25  1  0.91910000  0.62010000  0.98210000  1.0
  H  H26  1  0.96750000  0.92340000  0.56810000  1.0
  H  H27  1  0.91910000  0.12010000  0.48210000  1.0
  H  H28  1  0.46750000  0.42340000  0.56810000  1.0
  H  H29  1  0.41910000  0.62010000  0.48210000  1.0
  H  H30  1  0.46750000  0.92340000  0.06810000  1.0
  H  H31  1  0.41910000  0.12010000  0.98210000  1.0
  H  H32  1  0.96750000  0.32660000  0.68190000  1.0
  H  H33  1  0.91910000  0.12990000  0.76790000  1.0
  H  H34  1  0.96750000  0.82660000  0.18190000  1.0
  H  H35  1  0.91910000  0.62990000  0.26790000  1.0
  H  H36  1  0.46750000  0.32660000  0.18190000  1.0
  H  H37  1  0.41910000  0.12990000  0.26790000  1.0
  H  H38  1  0.46750000  0.82660000  0.68190000  1.0
  H  H39  1  0.41910000  0.62990000  0.76790000  1.0
  H  H40  1  0.78250000  0.42340000  0.68190000  1.0
  H  H41  1  0.83090000  0.62010000  0.76790000  1.0
  H  H42  1  0.78250000  0.92340000  0.18190000  1.0
  H  H43  1  0.83090000  0.12010000  0.26790000  1.0
  H  H44  1  0.28250000  0.42340000  0.18190000  1.0
  H  H45  1  0.33090000  0.62010000  0.26790000  1.0
  H  H46  1  0.28250000  0.92340000  0.68190000  1.0
  H  H47  1  0.33090000  0.12010000  0.76790000  1.0
  H  H48  1  0.21750000  0.67340000  0.93190000  1.0
  H  H49  1  0.16910000  0.87010000  0.01790000  1.0
  H  H50  1  0.21750000  0.17340000  0.43190000  1.0
  H  H51  1  0.16910000  0.37010000  0.51790000  1.0
  H  H52  1  0.71750000  0.67340000  0.43190000  1.0
  H  H53  1  0.66910000  0.87010000  0.51790000  1.0
  H  H54  1  0.71750000  0.17340000  0.93190000  1.0
  H  H55  1  0.66910000  0.37010000  0.01790000  1.0
  H  H56  1  0.03250000  0.57660000  0.93190000  1.0
  H  H57  1  0.08090000  0.37990000  0.01790000  1.0
  H  H58  1  0.03250000  0.07660000  0.43190000  1.0
  H  H59  1  0.08090000  0.87990000  0.51790000  1.0
  H  H60  1  0.53250000  0.57660000  0.43190000  1.0
  H  H61  1  0.58090000  0.37990000  0.51790000  1.0
  H  H62  1  0.53250000  0.07660000  0.93190000  1.0
  H  H63  1  0.58090000  0.87990000  0.01790000  1.0
  H  H64  1  0.03250000  0.67340000  0.31810000  1.0
  H  H65  1  0.08090000  0.87010000  0.23210000  1.0
  H  H66  1  0.03250000  0.17340000  0.81810000  1.0
  H  H67  1  0.08090000  0.37010000  0.73210000  1.0
  H  H68  1  0.53250000  0.67340000  0.81810000  1.0
  H  H69  1  0.58090000  0.87010000  0.73210000  1.0
  H  H70  1  0.53250000  0.17340000  0.31810000  1.0
  H  H71  1  0.58090000  0.37010000  0.23210000  1.0
  H  H72  1  0.21750000  0.57660000  0.31810000  1.0
  H  H73  1  0.16910000  0.37990000  0.23210000  1.0
  H  H74  1  0.21750000  0.07660000  0.81810000  1.0
  H  H75  1  0.16910000  0.87990000  0.73210000  1.0
  H  H76  1  0.71750000  0.57660000  0.81810000  1.0
  H  H77  1  0.66910000  0.37990000  0.73210000  1.0
  H  H78  1  0.71750000  0.07660000  0.31810000  1.0
  H  H79  1  0.66910000  0.87990000  0.23210000  1.0
  C  C80  1  0.81800000  0.22320000  0.03052000  1.0
  C  C81  1  0.88840000  0.19360000  0.06385000  1.0
  C  C82  1  0.76950000  0.29570000  0.04093000  1.0
  C  C83  1  0.79840000  0.17800000  0.98936000  1.0
  C  C84  1  0.81800000  0.72320000  0.53052000  1.0
  C  C85  1  0.88840000  0.69360000  0.56385000  1.0
  C  C86  1  0.76950000  0.79570000  0.54093000  1.0
  C  C87  1  0.79840000  0.67800000  0.48936000  1.0
  C  C88  1  0.31800000  0.22320000  0.53052000  1.0
  C  C89  1  0.38840000  0.19360000  0.56385000  1.0
  C  C90  1  0.26950000  0.29570000  0.54093000  1.0
  C  C91  1  0.29840000  0.17800000  0.48936000  1.0
  C  C92  1  0.31800000  0.72320000  0.03052000  1.0
  C  C93  1  0.38840000  0.69360000  0.06385000  1.0
  C  C94  1  0.26950000  0.79570000  0.04093000  1.0
  C  C95  1  0.29840000  0.67800000  0.98936000  1.0
  C  C96  1  0.93200000  0.52680000  0.03052000  1.0
  C  C97  1  0.86160000  0.55640000  0.06385000  1.0
  C  C98  1  0.98050000  0.45430000  0.04093000  1.0
  C  C99  1  0.95160000  0.57200000  0.98936000  1.0
  C  C100  1  0.93200000  0.02680000  0.53052000  1.0
  C  C101  1  0.86160000  0.05640000  0.56385000  1.0
  C  C102  1  0.98050000  0.95430000  0.54093000  1.0
  C  C103  1  0.95160000  0.07200000  0.48936000  1.0
  C  C104  1  0.43200000  0.52680000  0.53052000  1.0
  C  C105  1  0.36160000  0.55640000  0.56385000  1.0
  C  C106  1  0.48050000  0.45430000  0.54093000  1.0
  C  C107  1  0.45160000  0.57200000  0.48936000  1.0
  C  C108  1  0.43200000  0.02680000  0.03052000  1.0
  C  C109  1  0.36160000  0.05640000  0.06385000  1.0
  C  C110  1  0.48050000  0.95430000  0.04093000  1.0
  C  C111  1  0.45160000  0.07200000  0.98936000  1.0
  C  C112  1  0.93200000  0.22320000  0.71948000  1.0
  C  C113  1  0.86160000  0.19360000  0.68615000  1.0
  C  C114  1  0.98050000  0.29570000  0.70907000  1.0
  C  C115  1  0.95160000  0.17800000  0.76064000  1.0
  C  C116  1  0.93200000  0.72320000  0.21948000  1.0
  C  C117  1  0.86160000  0.69360000  0.18615000  1.0
  C  C118  1  0.98050000  0.79570000  0.20907000  1.0
  C  C119  1  0.95160000  0.67800000  0.26064000  1.0
  C  C120  1  0.43200000  0.22320000  0.21948000  1.0
  C  C121  1  0.36160000  0.19360000  0.18615000  1.0
  C  C122  1  0.48050000  0.29570000  0.20907000  1.0
  C  C123  1  0.45160000  0.17800000  0.26064000  1.0
  C  C124  1  0.43200000  0.72320000  0.71948000  1.0
  C  C125  1  0.36160000  0.69360000  0.68615000  1.0
  C  C126  1  0.48050000  0.79570000  0.70907000  1.0
  C  C127  1  0.45160000  0.67800000  0.76064000  1.0
  C  C128  1  0.81800000  0.52680000  0.71948000  1.0
  C  C129  1  0.88840000  0.55640000  0.68615000  1.0
  C  C130  1  0.76950000  0.45430000  0.70907000  1.0
  C  C131  1  0.79840000  0.57200000  0.76064000  1.0
  C  C132  1  0.81800000  0.02680000  0.21948000  1.0
  C  C133  1  0.88840000  0.05640000  0.18615000  1.0
  C  C134  1  0.76950000  0.95430000  0.20907000  1.0
  C  C135  1  0.79840000  0.07200000  0.26064000  1.0
  C  C136  1  0.31800000  0.52680000  0.21948000  1.0
  C  C137  1  0.38840000  0.55640000  0.18615000  1.0
  C  C138  1  0.26950000  0.45430000  0.20907000  1.0
  C  C139  1  0.29840000  0.57200000  0.26064000  1.0
  C  C140  1  0.31800000  0.02680000  0.71948000  1.0
  C  C141  1  0.38840000  0.05640000  0.68615000  1.0
  C  C142  1  0.26950000  0.95430000  0.70907000  1.0
  C  C143  1  0.29840000  0.07200000  0.76064000  1.0
  C  C144  1  0.18200000  0.77680000  0.96948000  1.0
  C  C145  1  0.11160000  0.80640000  0.93615000  1.0
  C  C146  1  0.23050000  0.70430000  0.95907000  1.0
  C  C147  1  0.20160000  0.82200000  0.01064000  1.0
  C  C148  1  0.18200000  0.27680000  0.46948000  1.0
  C  C149  1  0.11160000  0.30640000  0.43615000  1.0
  C  C150  1  0.23050000  0.20430000  0.45907000  1.0
  C  C151  1  0.20160000  0.32200000  0.51064000  1.0
  C  C152  1  0.68200000  0.77680000  0.46948000  1.0
  C  C153  1  0.61160000  0.80640000  0.43615000  1.0
  C  C154  1  0.73050000  0.70430000  0.45907000  1.0
  C  C155  1  0.70160000  0.82200000  0.51064000  1.0
  C  C156  1  0.68200000  0.27680000  0.96948000  1.0
  C  C157  1  0.61160000  0.30640000  0.93615000  1.0
  C  C158  1  0.73050000  0.20430000  0.95907000  1.0
  C  C159  1  0.70160000  0.32200000  0.01064000  1.0
  C  C160  1  0.06800000  0.47320000  0.96948000  1.0
  C  C161  1  0.13840000  0.44360000  0.93615000  1.0
  C  C162  1  0.01950000  0.54570000  0.95907000  1.0
  C  C163  1  0.04840000  0.42800000  0.01064000  1.0
  C  C164  1  0.06800000  0.97320000  0.46948000  1.0
  C  C165  1  0.13840000  0.94360000  0.43615000  1.0
  C  C166  1  0.01950000  0.04570000  0.45907000  1.0
  C  C167  1  0.04840000  0.92800000  0.51064000  1.0
  C  C168  1  0.56800000  0.47320000  0.46948000  1.0
  C  C169  1  0.63840000  0.44360000  0.43615000  1.0
  C  C170  1  0.51950000  0.54570000  0.45907000  1.0
  C  C171  1  0.54840000  0.42800000  0.51064000  1.0
  C  C172  1  0.56800000  0.97320000  0.96948000  1.0
  C  C173  1  0.63840000  0.94360000  0.93615000  1.0
  C  C174  1  0.51950000  0.04570000  0.95907000  1.0
  C  C175  1  0.54840000  0.92800000  0.01064000  1.0
  C  C176  1  0.06800000  0.77680000  0.28052000  1.0
  C  C177  1  0.13840000  0.80640000  0.31385000  1.0
  C  C178  1  0.01950000  0.70430000  0.29093000  1.0
  C  C179  1  0.04840000  0.82200000  0.23936000  1.0
  C  C180  1  0.06800000  0.27680000  0.78052000  1.0
  C  C181  1  0.13840000  0.30640000  0.81385000  1.0
  C  C182  1  0.01950000  0.20430000  0.79093000  1.0
  C  C183  1  0.04840000  0.32200000  0.73936000  1.0
  C  C184  1  0.56800000  0.77680000  0.78052000  1.0
  C  C185  1  0.63840000  0.80640000  0.81385000  1.0
  C  C186  1  0.51950000  0.70430000  0.79093000  1.0
  C  C187  1  0.54840000  0.82200000  0.73936000  1.0
  C  C188  1  0.56800000  0.27680000  0.28052000  1.0
  C  C189  1  0.63840000  0.30640000  0.31385000  1.0
  C  C190  1  0.51950000  0.20430000  0.29093000  1.0
  C  C191  1  0.54840000  0.32200000  0.23936000  1.0
  C  C192  1  0.18200000  0.47320000  0.28052000  1.0
  C  C193  1  0.11160000  0.44360000  0.31385000  1.0
  C  C194  1  0.23050000  0.54570000  0.29093000  1.0
  C  C195  1  0.20160000  0.42800000  0.23936000  1.0
  C  C196  1  0.18200000  0.97320000  0.78052000  1.0
  C  C197  1  0.11160000  0.94360000  0.81385000  1.0
  C  C198  1  0.23050000  0.04570000  0.79093000  1.0
  C  C199  1  0.20160000  0.92800000  0.73936000  1.0
  C  C200  1  0.68200000  0.47320000  0.78052000  1.0
  C  C201  1  0.61160000  0.44360000  0.81385000  1.0
  C  C202  1  0.73050000  0.54570000  0.79093000  1.0
  C  C203  1  0.70160000  0.42800000  0.73936000  1.0
  C  C204  1  0.68200000  0.97320000  0.28052000  1.0
  C  C205  1  0.61160000  0.94360000  0.31385000  1.0
  C  C206  1  0.73050000  0.04570000  0.29093000  1.0
  C  C207  1  0.70160000  0.92800000  0.23936000  1.0
  Cl  Cl208  1  0.12500000  0.01262000  0.12500000  1.0
  Cl  Cl209  1  0.12500000  0.51262000  0.62500000  1.0
  Cl  Cl210  1  0.62500000  0.01262000  0.62500000  1.0
  Cl  Cl211  1  0.62500000  0.73738000  0.12500000  1.0
  Cl  Cl212  1  0.62500000  0.23738000  0.62500000  1.0
  Cl  Cl213  1  0.62500000  0.51262000  0.12500000  1.0
  Cl  Cl214  1  0.12500000  0.73738000  0.62500000  1.0
  Cl  Cl215  1  0.12500000  0.23738000  0.12500000  1.0
  Cl  Cl216  1  0.87500000  0.98738000  0.87500000  1.0
  Cl  Cl217  1  0.87500000  0.48738000  0.37500000  1.0
  Cl  Cl218  1  0.37500000  0.98738000  0.37500000  1.0
  Cl  Cl219  1  0.37500000  0.26262000  0.87500000  1.0
  Cl  Cl220  1  0.37500000  0.76262000  0.37500000  1.0
  Cl  Cl221  1  0.37500000  0.48738000  0.87500000  1.0
  Cl  Cl222  1  0.87500000  0.26262000  0.37500000  1.0
  Cl  Cl223  1  0.87500000  0.76262000  0.87500000  1.0
  O  O224  1  0.94220000  0.13660000  0.05000000  1.0
  O  O225  1  0.89150000  0.22430000  0.10476000  1.0
  O  O226  1  0.94220000  0.63660000  0.55000000  1.0
  O  O227  1  0.89150000  0.72430000  0.60476000  1.0
  O  O228  1  0.44220000  0.13660000  0.55000000  1.0
  O  O229  1  0.39150000  0.22430000  0.60476000  1.0
  O  O230  1  0.44220000  0.63660000  0.05000000  1.0
  O  O231  1  0.39150000  0.72430000  0.10476000  1.0
  O  O232  1  0.80780000  0.61340000  0.05000000  1.0
  O  O233  1  0.85850000  0.52570000  0.10476000  1.0
  O  O234  1  0.80780000  0.11340000  0.55000000  1.0
  O  O235  1  0.85850000  0.02570000  0.60476000  1.0
  O  O236  1  0.30780000  0.61340000  0.55000000  1.0
  O  O237  1  0.35850000  0.52570000  0.60476000  1.0
  O  O238  1  0.30780000  0.11340000  0.05000000  1.0
  O  O239  1  0.35850000  0.02570000  0.10476000  1.0
  O  O240  1  0.80780000  0.13660000  0.70000000  1.0
  O  O241  1  0.85850000  0.22430000  0.64524000  1.0
  O  O242  1  0.80780000  0.63660000  0.20000000  1.0
  O  O243  1  0.85850000  0.72430000  0.14524000  1.0
  O  O244  1  0.30780000  0.13660000  0.20000000  1.0
  O  O245  1  0.35850000  0.22430000  0.14524000  1.0
  O  O246  1  0.30780000  0.63660000  0.70000000  1.0
  O  O247  1  0.35850000  0.72430000  0.64524000  1.0
  O  O248  1  0.94220000  0.61340000  0.70000000  1.0
  O  O249  1  0.89150000  0.52570000  0.64524000  1.0
  O  O250  1  0.94220000  0.11340000  0.20000000  1.0
  O  O251  1  0.89150000  0.02570000  0.14524000  1.0
  O  O252  1  0.44220000  0.61340000  0.20000000  1.0
  O  O253  1  0.39150000  0.52570000  0.14524000  1.0
  O  O254  1  0.44220000  0.11340000  0.70000000  1.0
  O  O255  1  0.39150000  0.02570000  0.64524000  1.0
  O  O256  1  0.05780000  0.86340000  0.95000000  1.0
  O  O257  1  0.10850000  0.77570000  0.89524000  1.0
  O  O258  1  0.05780000  0.36340000  0.45000000  1.0
  O  O259  1  0.10850000  0.27570000  0.39524000  1.0
  O  O260  1  0.55780000  0.86340000  0.45000000  1.0
  O  O261  1  0.60850000  0.77570000  0.39524000  1.0
  O  O262  1  0.55780000  0.36340000  0.95000000  1.0
  O  O263  1  0.60850000  0.27570000  0.89524000  1.0
  O  O264  1  0.19220000  0.38660000  0.95000000  1.0
  O  O265  1  0.14150000  0.47430000  0.89524000  1.0
  O  O266  1  0.19220000  0.88660000  0.45000000  1.0
  O  O267  1  0.14150000  0.97430000  0.39524000  1.0
  O  O268  1  0.69220000  0.38660000  0.45000000  1.0
  O  O269  1  0.64150000  0.47430000  0.39524000  1.0
  O  O270  1  0.69220000  0.88660000  0.95000000  1.0
  O  O271  1  0.64150000  0.97430000  0.89524000  1.0
  O  O272  1  0.19220000  0.86340000  0.30000000  1.0
  O  O273  1  0.14150000  0.77570000  0.35476000  1.0
  O  O274  1  0.19220000  0.36340000  0.80000000  1.0
  O  O275  1  0.14150000  0.27570000  0.85476000  1.0
  O  O276  1  0.69220000  0.86340000  0.80000000  1.0
  O  O277  1  0.64150000  0.77570000  0.85476000  1.0
  O  O278  1  0.69220000  0.36340000  0.30000000  1.0
  O  O279  1  0.64150000  0.27570000  0.35476000  1.0
  O  O280  1  0.05780000  0.38660000  0.30000000  1.0
  O  O281  1  0.10850000  0.47430000  0.35476000  1.0
  O  O282  1  0.05780000  0.88660000  0.80000000  1.0
  O  O283  1  0.10850000  0.97430000  0.85476000  1.0
  O  O284  1  0.55780000  0.38660000  0.80000000  1.0
  O  O285  1  0.60850000  0.47430000  0.85476000  1.0
  O  O286  1  0.55780000  0.88660000  0.30000000  1.0
  O  O287  1  0.60850000  0.97430000  0.35476000  1.0
