# generated using pymatgen
data_AlH5C8O5
_symmetry_space_group_name_H-M   'P 1'
_cell_length_a   16.78070000
_cell_length_b   6.61250000
_cell_length_c   12.71430000
_cell_angle_alpha   90.00000000
_cell_angle_beta   90.00000000
_cell_angle_gamma   90.00000000
_symmetry_Int_Tables_number   1
_chemical_formula_structural   AlH5C8O5
_chemical_formula_sum   'Al4 H20 C32 O20'
_cell_volume   1410.80897214
_cell_formula_units_Z   4
loop_
 _symmetry_equiv_pos_site_id
 _symmetry_equiv_pos_as_xyz
  1  'x, y, z'
loop_
 _atom_site_type_symbol
 _atom_site_label
 _atom_site_symmetry_multiplicity
 _atom_site_fract_x
 _atom_site_fract_y
 _atom_site_fract_z
 _atom_site_occupancy
  Al  Al0  1  0.50000000  0.75000000  0.75000000  1.0
  Al  Al1  1  0.00000000  0.25000000  0.25000000  1.0
  Al  Al2  1  0.50000000  0.25000000  0.75000000  1.0
  Al  Al3  1  0.00000000  0.75000000  0.25000000  1.0
  H  H4  1  0.32449000  0.34723000  0.96344000  1.0
  H  H5  1  0.18901000  0.34758000  0.07062000  1.0
  H  H6  1  0.50000000  0.50000000  0.88655000  1.0
  H  H7  1  0.50000000  0.00000000  0.61405000  1.0
  H  H8  1  0.82449000  0.84723000  0.46344000  1.0
  H  H9  1  0.68901000  0.84758000  0.57062000  1.0
  H  H10  1  0.00000000  0.00000000  0.38655000  1.0
  H  H11  1  0.00000000  0.50000000  0.11405000  1.0
  H  H12  1  0.67551000  0.65277000  0.96344000  1.0
  H  H13  1  0.81099000  0.65242000  0.07062000  1.0
  H  H14  1  0.17551000  0.15277000  0.46344000  1.0
  H  H15  1  0.31099000  0.15242000  0.57062000  1.0
  H  H16  1  0.32449000  0.65277000  0.96344000  1.0
  H  H17  1  0.18901000  0.65242000  0.07062000  1.0
  H  H18  1  0.82449000  0.15277000  0.46344000  1.0
  H  H19  1  0.68901000  0.15242000  0.57062000  1.0
  H  H20  1  0.67551000  0.34723000  0.96344000  1.0
  H  H21  1  0.81099000  0.34758000  0.07062000  1.0
  H  H22  1  0.17551000  0.84723000  0.46344000  1.0
  H  H23  1  0.31099000  0.84758000  0.57062000  1.0
  C  C24  1  0.29530000  0.19800000  0.98650000  1.0
  C  C25  1  0.21810000  0.19820000  0.04760000  1.0
  C  C26  1  0.79530000  0.69800000  0.48650000  1.0
  C  C27  1  0.71810000  0.69820000  0.54760000  1.0
  C  C28  1  0.70470000  0.80200000  0.98650000  1.0
  C  C29  1  0.78190000  0.80180000  0.04760000  1.0
  C  C30  1  0.20470000  0.30200000  0.48650000  1.0
  C  C31  1  0.28190000  0.30180000  0.54760000  1.0
  C  C32  1  0.29530000  0.80200000  0.98650000  1.0
  C  C33  1  0.21810000  0.80180000  0.04760000  1.0
  C  C34  1  0.79530000  0.30200000  0.48650000  1.0
  C  C35  1  0.71810000  0.30180000  0.54760000  1.0
  C  C36  1  0.70470000  0.19800000  0.98650000  1.0
  C  C37  1  0.78190000  0.19820000  0.04760000  1.0
  C  C38  1  0.20470000  0.69800000  0.48650000  1.0
  C  C39  1  0.28190000  0.69820000  0.54760000  1.0
  C  C40  1  0.19460000  0.00000000  0.06620000  1.0
  C  C41  1  0.31860000  0.00000000  0.96800000  1.0
  C  C42  1  0.38600000  0.00000000  0.89180000  1.0
  C  C43  1  0.69460000  0.50000000  0.56620000  1.0
  C  C44  1  0.81860000  0.50000000  0.46800000  1.0
  C  C45  1  0.88600000  0.50000000  0.39180000  1.0
  C  C46  1  0.80540000  0.00000000  0.06620000  1.0
  C  C47  1  0.68140000  0.00000000  0.96800000  1.0
  C  C48  1  0.61400000  0.00000000  0.89180000  1.0
  C  C49  1  0.30540000  0.50000000  0.56620000  1.0
  C  C50  1  0.18140000  0.50000000  0.46800000  1.0
  C  C51  1  0.11400000  0.50000000  0.39180000  1.0
  C  C52  1  0.62110000  0.50000000  0.63120000  1.0
  C  C53  1  0.12110000  0.00000000  0.13120000  1.0
  C  C54  1  0.37890000  0.50000000  0.63120000  1.0
  C  C55  1  0.87890000  0.00000000  0.13120000  1.0
  O  O56  1  0.42380000  0.84860000  0.84780000  1.0
  O  O57  1  0.58820000  0.33770000  0.66520000  1.0
  O  O58  1  0.92380000  0.34860000  0.34780000  1.0
  O  O59  1  0.08820000  0.83770000  0.16520000  1.0
  O  O60  1  0.57620000  0.15140000  0.84780000  1.0
  O  O61  1  0.41180000  0.66230000  0.66520000  1.0
  O  O62  1  0.07620000  0.65140000  0.34780000  1.0
  O  O63  1  0.91180000  0.16230000  0.16520000  1.0
  O  O64  1  0.42380000  0.15140000  0.84780000  1.0
  O  O65  1  0.58820000  0.66230000  0.66520000  1.0
  O  O66  1  0.92380000  0.65140000  0.34780000  1.0
  O  O67  1  0.08820000  0.16230000  0.16520000  1.0
  O  O68  1  0.57620000  0.84860000  0.84780000  1.0
  O  O69  1  0.41180000  0.33770000  0.66520000  1.0
  O  O70  1  0.07620000  0.34860000  0.34780000  1.0
  O  O71  1  0.91180000  0.83770000  0.16520000  1.0
  O  O72  1  0.50000000  0.50000000  0.80790000  1.0
  O  O73  1  0.00000000  0.00000000  0.30790000  1.0
  O  O74  1  0.50000000  0.00000000  0.69270000  1.0
  O  O75  1  0.00000000  0.50000000  0.19270000  1.0
