# generated using pymatgen
data_YH4(CO2)4
_symmetry_space_group_name_H-M   'P 1'
_cell_length_a   6.67540000
_cell_length_b   18.39430000
_cell_length_c   8.45710000
_cell_angle_alpha   90.00000000
_cell_angle_beta   90.00000000
_cell_angle_gamma   90.00000000
_symmetry_Int_Tables_number   1
_chemical_formula_structural   YH4(CO2)4
_chemical_formula_sum   'Y4 H16 C16 O32'
_cell_volume   1038.44147546
_cell_formula_units_Z   4
loop_
 _symmetry_equiv_pos_site_id
 _symmetry_equiv_pos_as_xyz
  1  'x, y, z'
loop_
 _atom_site_type_symbol
 _atom_site_label
 _atom_site_symmetry_multiplicity
 _atom_site_fract_x
 _atom_site_fract_y
 _atom_site_fract_z
 _atom_site_occupancy
  Y  Y0  1  0.50000000  0.14261000  0.75000000  1.0
  Y  Y1  1  0.00000000  0.64260000  0.75000000  1.0
  Y  Y2  1  0.50000000  0.85740000  0.25000000  1.0
  Y  Y3  1  0.00000000  0.35739000  0.25000000  1.0
  H  H4  1  0.21850000  0.21780000  0.04530000  1.0
  H  H5  1  0.71850000  0.71780000  0.04530000  1.0
  H  H6  1  0.78150000  0.78220000  0.54530000  1.0
  H  H7  1  0.28150000  0.28220000  0.54530000  1.0
  H  H8  1  0.78150000  0.21780000  0.45470000  1.0
  H  H9  1  0.28150000  0.71780000  0.45470000  1.0
  H  H10  1  0.21850000  0.78220000  0.95470000  1.0
  H  H11  1  0.71850000  0.28220000  0.95470000  1.0
  H  H12  1  0.00000000  0.17600000  0.75000000  1.0
  H  H13  1  0.50000000  0.67600000  0.75000000  1.0
  H  H14  1  0.00000000  0.82400000  0.25000000  1.0
  H  H15  1  0.50000000  0.32400000  0.25000000  1.0
  H  H16  1  0.71420000  0.00000000  0.50000000  1.0
  H  H17  1  0.21420000  0.50000000  0.50000000  1.0
  H  H18  1  0.28580000  0.00000000  0.00000000  1.0
  H  H19  1  0.78580000  0.50000000  0.00000000  1.0
  C  C20  1  0.23670000  0.25630000  0.97540000  1.0
  C  C21  1  0.73670000  0.75630000  0.97540000  1.0
  C  C22  1  0.76330000  0.74370000  0.47540000  1.0
  C  C23  1  0.26330000  0.24370000  0.47540000  1.0
  C  C24  1  0.76330000  0.25630000  0.52460000  1.0
  C  C25  1  0.26330000  0.75630000  0.52460000  1.0
  C  C26  1  0.23670000  0.74370000  0.02460000  1.0
  C  C27  1  0.73670000  0.24370000  0.02460000  1.0
  C  C28  1  0.00000000  0.12540000  0.75000000  1.0
  C  C29  1  0.50000000  0.62540000  0.75000000  1.0
  C  C30  1  0.00000000  0.87460000  0.25000000  1.0
  C  C31  1  0.50000000  0.37460000  0.25000000  1.0
  C  C32  1  0.57490000  0.00000000  0.50000000  1.0
  C  C33  1  0.07490000  0.50000000  0.50000000  1.0
  C  C34  1  0.42510000  0.00000000  0.00000000  1.0
  C  C35  1  0.92510000  0.50000000  0.00000000  1.0
  O  O36  1  0.16410000  0.09438000  0.76950000  1.0
  O  O37  1  0.49000000  0.05021000  0.56980000  1.0
  O  O38  1  0.17550000  0.31651000  0.01870000  1.0
  O  O39  1  0.32020000  0.24192000  0.84800000  1.0
  O  O40  1  0.66410000  0.59438000  0.76950000  1.0
  O  O41  1  0.99000000  0.55021000  0.56980000  1.0
  O  O42  1  0.67550000  0.81651000  0.01870000  1.0
  O  O43  1  0.82020000  0.74192000  0.84800000  1.0
  O  O44  1  0.83590000  0.90562000  0.26950000  1.0
  O  O45  1  0.51000000  0.94979000  0.06980000  1.0
  O  O46  1  0.82450000  0.68349000  0.51870000  1.0
  O  O47  1  0.67980000  0.75808000  0.34800000  1.0
  O  O48  1  0.33590000  0.40562000  0.26950000  1.0
  O  O49  1  0.01000000  0.44979000  0.06980000  1.0
  O  O50  1  0.32450000  0.18349000  0.51870000  1.0
  O  O51  1  0.17980000  0.25808000  0.34800000  1.0
  O  O52  1  0.83590000  0.09438000  0.73050000  1.0
  O  O53  1  0.51000000  0.05021000  0.93020000  1.0
  O  O54  1  0.82450000  0.31651000  0.48130000  1.0
  O  O55  1  0.67980000  0.24192000  0.65200000  1.0
  O  O56  1  0.33590000  0.59438000  0.73050000  1.0
  O  O57  1  0.01000000  0.55021000  0.93020000  1.0
  O  O58  1  0.32450000  0.81651000  0.48130000  1.0
  O  O59  1  0.17980000  0.74192000  0.65200000  1.0
  O  O60  1  0.16410000  0.90562000  0.23050000  1.0
  O  O61  1  0.49000000  0.94979000  0.43020000  1.0
  O  O62  1  0.17550000  0.68349000  0.98130000  1.0
  O  O63  1  0.32020000  0.75808000  0.15200000  1.0
  O  O64  1  0.66410000  0.40562000  0.23050000  1.0
  O  O65  1  0.99000000  0.44979000  0.43020000  1.0
  O  O66  1  0.67550000  0.18349000  0.98130000  1.0
  O  O67  1  0.82020000  0.25808000  0.15200000  1.0
