# generated using pymatgen
data_CdH5C11O4
_symmetry_space_group_name_H-M   'P 1'
_cell_length_a   14.41600000
_cell_length_b   14.72490000
_cell_length_c   14.72490000
_cell_angle_alpha   76.13580000
_cell_angle_beta   60.69150000
_cell_angle_gamma   60.69160000
_symmetry_Int_Tables_number   1
_chemical_formula_structural   CdH5C11O4
_chemical_formula_sum   'Cd8 H40 C88 O32'
_cell_volume   2376.72837829
_cell_formula_units_Z   8
loop_
 _symmetry_equiv_pos_site_id
 _symmetry_equiv_pos_as_xyz
  1  'x, y, z'
loop_
 _atom_site_type_symbol
 _atom_site_label
 _atom_site_symmetry_multiplicity
 _atom_site_fract_x
 _atom_site_fract_y
 _atom_site_fract_z
 _atom_site_occupancy
  Cd  Cd0  1  0.96748000  0.78029000  0.18939000  1.0
  Cd  Cd1  1  0.56284000  0.28029000  0.68939000  1.0
  Cd  Cd2  1  0.74777000  0.68939000  0.21971000  1.0
  Cd  Cd3  1  0.84313000  0.18939000  0.71971000  1.0
  Cd  Cd4  1  0.15687000  0.81061000  0.28029000  1.0
  Cd  Cd5  1  0.03252000  0.21971000  0.81061000  1.0
  Cd  Cd6  1  0.25223000  0.31061000  0.78029000  1.0
  Cd  Cd7  1  0.43716000  0.71971000  0.31061000  1.0
  H  H8  1  0.34540000  0.92090000  0.41230000  1.0
  H  H9  1  0.72990000  0.19330000  0.15150000  1.0
  H  H10  1  0.50000000  0.36790000  0.22730000  1.0
  H  H11  1  0.88140000  0.84850000  0.69330000  1.0
  H  H12  1  0.46190000  0.85850000  0.07510000  1.0
  H  H13  1  0.10450000  0.35850000  0.57510000  1.0
  H  H14  1  0.29690000  0.43890000  0.28150000  1.0
  H  H15  1  0.50000000  0.63210000  0.77270000  1.0
  H  H16  1  0.32040000  0.57510000  0.14150000  1.0
  H  H17  1  0.42530000  0.69330000  0.65150000  1.0
  H  H18  1  0.27010000  0.80670000  0.84850000  1.0
  H  H19  1  0.11860000  0.15150000  0.30670000  1.0
  H  H20  1  0.48270000  0.93890000  0.78150000  1.0
  H  H21  1  0.65460000  0.07910000  0.58770000  1.0
  H  H22  1  0.70310000  0.56110000  0.71850000  1.0
  H  H23  1  0.59520000  0.13210000  0.27270000  1.0
  H  H24  1  0.27270000  0.22730000  0.13210000  1.0
  H  H25  1  0.73580000  0.78150000  0.56110000  1.0
  H  H26  1  0.72730000  0.77270000  0.86790000  1.0
  H  H27  1  0.26420000  0.21850000  0.43890000  1.0
  H  H28  1  0.67960000  0.42490000  0.85850000  1.0
  H  H29  1  0.57840000  0.71850000  0.93890000  1.0
  H  H30  1  0.89550000  0.64150000  0.42490000  1.0
  H  H31  1  0.26630000  0.91230000  0.07910000  1.0
  H  H32  1  0.40480000  0.86790000  0.72730000  1.0
  H  H33  1  0.42160000  0.28150000  0.06110000  1.0
  H  H34  1  0.53700000  0.92490000  0.35850000  1.0
  H  H35  1  0.57470000  0.30670000  0.34850000  1.0
  H  H36  1  0.53810000  0.14150000  0.92490000  1.0
  H  H37  1  0.24230000  0.41230000  0.57910000  1.0
  H  H38  1  0.17860000  0.57910000  0.08770000  1.0
  H  H39  1  0.13210000  0.27270000  0.36790000  1.0
  H  H40  1  0.51730000  0.06110000  0.21850000  1.0
  H  H41  1  0.82140000  0.42090000  0.91230000  1.0
  H  H42  1  0.86790000  0.72730000  0.63210000  1.0
  H  H43  1  0.92320000  0.65150000  0.80670000  1.0
  H  H44  1  0.46300000  0.07510000  0.64150000  1.0
  H  H45  1  0.07680000  0.34850000  0.19330000  1.0
  H  H46  1  0.75770000  0.58770000  0.42090000  1.0
  H  H47  1  0.73370000  0.08770000  0.92090000  1.0
  C  C48  1  0.39320000  0.54430000  0.08450000  1.0
  C  C49  1  0.68290000  0.93440000  0.56820000  1.0
  C  C50  1  0.82270000  0.79810000  0.62590000  1.0
  C  C51  1  0.86360000  0.62960000  0.83940000  1.0
  C  C52  1  0.53580000  0.67960000  0.44500000  1.0
  C  C53  1  0.62080000  0.12590000  0.20190000  1.0
  C  C54  1  0.10750000  0.47620000  0.14680000  1.0
  C  C55  1  0.40510000  0.13830000  0.85770000  1.0
  C  C56  1  0.59490000  0.86170000  0.14230000  1.0
  C  C57  1  0.16740000  0.12960000  0.33940000  1.0
  C  C58  1  0.83260000  0.87040000  0.66060000  1.0
  C  C59  1  0.50680000  0.66060000  0.62960000  1.0
  C  C60  1  0.98080000  0.55500000  0.17960000  1.0
  C  C61  1  0.65710000  0.66960000  0.91840000  1.0
  C  C62  1  0.61730000  0.06820000  0.06560000  1.0
  C  C63  1  0.93750000  0.58450000  0.45570000  1.0
  C  C64  1  0.09890000  0.63830000  0.35770000  1.0
  C  C65  1  0.40710000  0.02960000  0.47300000  1.0
  C  C66  1  0.70400000  0.09890000  0.99130000  1.0
  C  C67  1  0.41630000  0.35320000  0.47620000  1.0
  C  C68  1  0.74570000  0.14680000  0.02380000  1.0
  C  C69  1  0.25110000  0.43180000  0.43440000  1.0
  C  C70  1  0.05510000  0.56010000  0.42590000  1.0
  C  C71  1  0.54340000  0.35770000  0.86170000  1.0
  C  C72  1  0.48100000  0.57410000  0.06010000  1.0
  C  C73  1  0.46420000  0.32040000  0.55500000  1.0
  C  C74  1  0.11990000  0.47300000  0.47040000  1.0
  C  C75  1  0.74890000  0.56820000  0.56560000  1.0
  C  C76  1  0.21540000  0.94500000  0.32040000  1.0
  C  C77  1  0.26280000  0.14230000  0.63830000  1.0
  C  C78  1  0.89250000  0.52380000  0.85320000  1.0
  C  C79  1  0.56330000  0.02700000  0.02960000  1.0
  C  C80  1  0.90110000  0.36170000  0.64230000  1.0
  C  C81  1  0.61520000  0.92590000  0.43990000  1.0
  C  C82  1  0.60680000  0.45570000  0.91550000  1.0
  C  C83  1  0.74510000  0.83040000  0.58160000  1.0
  C  C84  1  0.57550000  0.08160000  0.16960000  1.0
  C  C85  1  0.76950000  0.97620000  0.64680000  1.0
  C  C86  1  0.38480000  0.07410000  0.56010000  1.0
  C  C87  1  0.38270000  0.93180000  0.93440000  1.0
  C  C88  1  0.55140000  0.62590000  0.70190000  1.0
  C  C89  1  0.13640000  0.37040000  0.16060000  1.0
  C  C90  1  0.25490000  0.16960000  0.41840000  1.0
  C  C91  1  0.52200000  0.95570000  0.41550000  1.0
  C  C92  1  0.49320000  0.33940000  0.37040000  1.0
  C  C93  1  0.70580000  0.59890000  0.49130000  1.0
  C  C94  1  0.78460000  0.05500000  0.67960000  1.0
  C  C95  1  0.34290000  0.33040000  0.08160000  1.0
  C  C96  1  0.06250000  0.41550000  0.54430000  1.0
  C  C97  1  0.52230000  0.08450000  0.95570000  1.0
  C  C98  1  0.29700000  0.83940000  0.87040000  1.0
  C  C99  1  0.37920000  0.87410000  0.79810000  1.0
  C  C100  1  0.40970000  0.47040000  0.02700000  1.0
  C  C101  1  0.69530000  0.00870000  0.59890000  1.0
  C  C102  1  0.58370000  0.64680000  0.52380000  1.0
  C  C103  1  0.19710000  0.50870000  0.09890000  1.0
  C  C104  1  0.31450000  0.43440000  0.06820000  1.0
  C  C105  1  0.42450000  0.91840000  0.83040000  1.0
  C  C106  1  0.45890000  0.06010000  0.92590000  1.0
  C  C107  1  0.23050000  0.02380000  0.35320000  1.0
  C  C108  1  0.59030000  0.52960000  0.97300000  1.0
  C  C109  1  0.67330000  0.58160000  0.66960000  1.0
  C  C110  1  0.01920000  0.44500000  0.82040000  1.0
  C  C111  1  0.25430000  0.85320000  0.97620000  1.0
  C  C112  1  0.88010000  0.52700000  0.52960000  1.0
  C  C113  1  0.44860000  0.37410000  0.29810000  1.0
  C  C114  1  0.45660000  0.64230000  0.13830000  1.0
  C  C115  1  0.70300000  0.16060000  0.12960000  1.0
  C  C116  1  0.17730000  0.20190000  0.37410000  1.0
  C  C117  1  0.31710000  0.06560000  0.43180000  1.0
  C  C118  1  0.83960000  0.17960000  0.94500000  1.0
  C  C119  1  0.80290000  0.49130000  0.90110000  1.0
  C  C120  1  0.94490000  0.43990000  0.57410000  1.0
  C  C121  1  0.16040000  0.82040000  0.05500000  1.0
  C  C122  1  0.47800000  0.04430000  0.58450000  1.0
  C  C123  1  0.43670000  0.97300000  0.97040000  1.0
  C  C124  1  0.32670000  0.41840000  0.33040000  1.0
  C  C125  1  0.54110000  0.93990000  0.07410000  1.0
  C  C126  1  0.29600000  0.90110000  0.00870000  1.0
  C  C127  1  0.29420000  0.40110000  0.50870000  1.0
  C  C128  1  0.74670000  0.70190000  0.87410000  1.0
  C  C129  1  0.25330000  0.29810000  0.12590000  1.0
  C  C130  1  0.59290000  0.97040000  0.52700000  1.0
  C  C131  1  0.51900000  0.42590000  0.93990000  1.0
  C  C132  1  0.68550000  0.56560000  0.93180000  1.0
  C  C133  1  0.47770000  0.91550000  0.04430000  1.0
  C  C134  1  0.30470000  0.99130000  0.40110000  1.0
  C  C135  1  0.73720000  0.85770000  0.36170000  1.0
  O  O136  1  0.84280000  0.33602000  0.62158000  1.0
  O  O137  1  0.35512000  0.71558000  0.17918000  1.0
  O  O138  1  0.83329000  0.02987000  0.73815000  1.0
  O  O139  1  0.30040000  0.16398000  0.87842000  1.0
  O  O140  1  0.10119000  0.85658000  0.14784000  1.0
  O  O141  1  0.39439000  0.35658000  0.64784000  1.0
  O  O142  1  0.04223000  0.35216000  0.85658000  1.0
  O  O143  1  0.92930000  0.32082000  0.71558000  1.0
  O  O144  1  0.15720000  0.66398000  0.37842000  1.0
  O  O145  1  0.10131000  0.47013000  0.76185000  1.0
  O  O146  1  0.64488000  0.28442000  0.82082000  1.0
  O  O147  1  0.25012000  0.21558000  0.67918000  1.0
  O  O148  1  0.75097000  0.14784000  0.64342000  1.0
  O  O149  1  0.13684000  0.76185000  0.02987000  1.0
  O  O150  1  0.07070000  0.67918000  0.28442000  1.0
  O  O151  1  0.89881000  0.14342000  0.85216000  1.0
  O  O152  1  0.46570000  0.17918000  0.78442000  1.0
  O  O153  1  0.17882000  0.12158000  0.66398000  1.0
  O  O154  1  0.95777000  0.64784000  0.14342000  1.0
  O  O155  1  0.53562000  0.62158000  0.16398000  1.0
  O  O156  1  0.16671000  0.97013000  0.26185000  1.0
  O  O157  1  0.86316000  0.23815000  0.97013000  1.0
  O  O158  1  0.46438000  0.37842000  0.83602000  1.0
  O  O159  1  0.74988000  0.78442000  0.32082000  1.0
  O  O160  1  0.53430000  0.82082000  0.21558000  1.0
  O  O161  1  0.82118000  0.87842000  0.33602000  1.0
  O  O162  1  0.24903000  0.85216000  0.35658000  1.0
  O  O163  1  0.60561000  0.64342000  0.35216000  1.0
  O  O164  1  0.42856000  0.73815000  0.47013000  1.0
  O  O165  1  0.57144000  0.26185000  0.52987000  1.0
  O  O166  1  0.89869000  0.52987000  0.23815000  1.0
  O  O167  1  0.69960000  0.83602000  0.12158000  1.0
