# generated using pymatgen
data_ZnH7C12N5O4
_symmetry_space_group_name_H-M   'P 1'
_cell_length_a   19.37700000
_cell_length_b   16.27700000
_cell_length_c   10.72000000
_cell_angle_alpha   90.00000000
_cell_angle_beta   101.38400000
_cell_angle_gamma   90.00000000
_symmetry_Int_Tables_number   1
_chemical_formula_structural   ZnH7C12N5O4
_chemical_formula_sum   'Zn8 H56 C96 N40 O32'
_cell_volume   3314.56359902
_cell_formula_units_Z   8
loop_
 _symmetry_equiv_pos_site_id
 _symmetry_equiv_pos_as_xyz
  1  'x, y, z'
loop_
 _atom_site_type_symbol
 _atom_site_label
 _atom_site_symmetry_multiplicity
 _atom_site_fract_x
 _atom_site_fract_y
 _atom_site_fract_z
 _atom_site_occupancy
  Zn  Zn0  1  0.01063000  0.65856000  0.04794000  1.0
  Zn  Zn1  1  0.49905000  0.65312000  0.01872000  1.0
  Zn  Zn2  1  0.98937000  0.15856000  0.45206000  1.0
  Zn  Zn3  1  0.50095000  0.15312000  0.48128000  1.0
  Zn  Zn4  1  0.98937000  0.34144000  0.95206000  1.0
  Zn  Zn5  1  0.50095000  0.34688000  0.98128000  1.0
  Zn  Zn6  1  0.01063000  0.84144000  0.54794000  1.0
  Zn  Zn7  1  0.49905000  0.84688000  0.51872000  1.0
  H  H8  1  0.99310000  0.89550000  0.26170000  1.0
  H  H9  1  0.99800000  0.85210000  0.13360000  1.0
  H  H10  1  0.14180000  0.79860000  0.18620000  1.0
  H  H11  1  0.24540000  0.86320000  0.17450000  1.0
  H  H12  1  0.16060000  0.07720000  0.24900000  1.0
  H  H13  1  0.05910000  0.00850000  0.26420000  1.0
  H  H14  1  0.34810000  0.92560000  0.22790000  1.0
  H  H15  1  0.72340000  0.37510000  0.91670000  1.0
  H  H16  1  0.76780000  0.65190000  0.99020000  1.0
  H  H17  1  0.44670000  0.99440000  0.19890000  1.0
  H  H18  1  0.34020000  0.20070000  0.13460000  1.0
  H  H19  1  0.24070000  0.13640000  0.17150000  1.0
  H  H20  1  0.45310000  0.15880000  0.03750000  1.0
  H  H21  1  0.50280000  0.10540000  0.13890000  1.0
  H  H22  1  0.00690000  0.39550000  0.23830000  1.0
  H  H23  1  0.00200000  0.35210000  0.36640000  1.0
  H  H24  1  0.85820000  0.29860000  0.31380000  1.0
  H  H25  1  0.75460000  0.36320000  0.32550000  1.0
  H  H26  1  0.83940000  0.57720000  0.25100000  1.0
  H  H27  1  0.94090000  0.50850000  0.23580000  1.0
  H  H28  1  0.65190000  0.42560000  0.27210000  1.0
  H  H29  1  0.27660000  0.87510000  0.58330000  1.0
  H  H30  1  0.23220000  0.15190000  0.50980000  1.0
  H  H31  1  0.55330000  0.49440000  0.30110000  1.0
  H  H32  1  0.65980000  0.70070000  0.36540000  1.0
  H  H33  1  0.75930000  0.63640000  0.32850000  1.0
  H  H34  1  0.54690000  0.65880000  0.46250000  1.0
  H  H35  1  0.49720000  0.60540000  0.36110000  1.0
  H  H36  1  0.00690000  0.10450000  0.73830000  1.0
  H  H37  1  0.00200000  0.14790000  0.86640000  1.0
  H  H38  1  0.85820000  0.20140000  0.81380000  1.0
  H  H39  1  0.75460000  0.13680000  0.82550000  1.0
  H  H40  1  0.83940000  0.92280000  0.75100000  1.0
  H  H41  1  0.94090000  0.99150000  0.73580000  1.0
  H  H42  1  0.65190000  0.07440000  0.77210000  1.0
  H  H43  1  0.27660000  0.62490000  0.08330000  1.0
  H  H44  1  0.23220000  0.34810000  0.00980000  1.0
  H  H45  1  0.55330000  0.00560000  0.80110000  1.0
  H  H46  1  0.65980000  0.79930000  0.86540000  1.0
  H  H47  1  0.75930000  0.86360000  0.82850000  1.0
  H  H48  1  0.54690000  0.84120000  0.96250000  1.0
  H  H49  1  0.49720000  0.89460000  0.86110000  1.0
  H  H50  1  0.99310000  0.60450000  0.76170000  1.0
  H  H51  1  0.99800000  0.64790000  0.63360000  1.0
  H  H52  1  0.14180000  0.70140000  0.68620000  1.0
  H  H53  1  0.24540000  0.63680000  0.67450000  1.0
  H  H54  1  0.16060000  0.42280000  0.74900000  1.0
  H  H55  1  0.05910000  0.49150000  0.76420000  1.0
  H  H56  1  0.34810000  0.57440000  0.72790000  1.0
  H  H57  1  0.72340000  0.12490000  0.41670000  1.0
  H  H58  1  0.76780000  0.84810000  0.49020000  1.0
  H  H59  1  0.44670000  0.50560000  0.69890000  1.0
  H  H60  1  0.34020000  0.29930000  0.63460000  1.0
  H  H61  1  0.24070000  0.36360000  0.67150000  1.0
  H  H62  1  0.45310000  0.34120000  0.53750000  1.0
  H  H63  1  0.50280000  0.39460000  0.63890000  1.0
  C  C64  1  0.02362000  0.77720000  0.28550000  1.0
  C  C65  1  0.02150000  0.85850000  0.22170000  1.0
  C  C66  1  0.14590000  0.85500000  0.19890000  1.0
  C  C67  1  0.20770000  0.89390000  0.19110000  1.0
  C  C68  1  0.21520000  0.97830000  0.20730000  1.0
  C  C69  1  0.15770000  0.02080000  0.23580000  1.0
  C  C70  1  0.09690000  0.97960000  0.24450000  1.0
  C  C71  1  0.28150000  0.02230000  0.19470000  1.0
  C  C72  1  0.34530000  0.98120000  0.20750000  1.0
  C  C73  1  0.79958000  0.46130000  0.93420000  1.0
  C  C74  1  0.73220000  0.43070000  0.93150000  1.0
  C  C75  1  0.67758000  0.48210000  0.95080000  1.0
  C  C76  1  0.69165000  0.56520000  0.97690000  1.0
  C  C77  1  0.75897000  0.59620000  0.97620000  1.0
  C  C78  1  0.81274000  0.54490000  0.95480000  1.0
  C  C79  1  0.85690000  0.40170000  0.92090000  1.0
  C  C80  1  0.60540000  0.44420000  0.93410000  1.0
  C  C81  1  0.63595000  0.62170000  0.00670000  1.0
  C  C82  1  0.40420000  0.02240000  0.19010000  1.0
  C  C83  1  0.34140000  0.14480000  0.15310000  1.0
  C  C84  1  0.28150000  0.10610000  0.17290000  1.0
  C  C85  1  0.46400000  0.14410000  0.12690000  1.0
  C  C86  1  0.48710000  0.21980000  0.20340000  1.0
  C  C87  1  0.88340000  0.58330000  0.94830000  1.0
  C  C88  1  0.97638000  0.27720000  0.21450000  1.0
  C  C89  1  0.97850000  0.35850000  0.27830000  1.0
  C  C90  1  0.85410000  0.35500000  0.30110000  1.0
  C  C91  1  0.79230000  0.39390000  0.30890000  1.0
  C  C92  1  0.78480000  0.47830000  0.29270000  1.0
  C  C93  1  0.84230000  0.52080000  0.26420000  1.0
  C  C94  1  0.90310000  0.47960000  0.25550000  1.0
  C  C95  1  0.71850000  0.52230000  0.30530000  1.0
  C  C96  1  0.65470000  0.48120000  0.29250000  1.0
  C  C97  1  0.20042000  0.96130000  0.56580000  1.0
  C  C98  1  0.26780000  0.93070000  0.56850000  1.0
  C  C99  1  0.32242000  0.98210000  0.54920000  1.0
  C  C100  1  0.30835000  0.06520000  0.52310000  1.0
  C  C101  1  0.24103000  0.09620000  0.52380000  1.0
  C  C102  1  0.18726000  0.04490000  0.54520000  1.0
  C  C103  1  0.14310000  0.90170000  0.57910000  1.0
  C  C104  1  0.39460000  0.94420000  0.56590000  1.0
  C  C105  1  0.36405000  0.12170000  0.49330000  1.0
  C  C106  1  0.59580000  0.52240000  0.30990000  1.0
  C  C107  1  0.65860000  0.64480000  0.34690000  1.0
  C  C108  1  0.71850000  0.60610000  0.32710000  1.0
  C  C109  1  0.53600000  0.64410000  0.37310000  1.0
  C  C110  1  0.51290000  0.71980000  0.29660000  1.0
  C  C111  1  0.11660000  0.08330000  0.55170000  1.0
  C  C112  1  0.97638000  0.22280000  0.71450000  1.0
  C  C113  1  0.97850000  0.14150000  0.77830000  1.0
  C  C114  1  0.85410000  0.14500000  0.80110000  1.0
  C  C115  1  0.79230000  0.10610000  0.80890000  1.0
  C  C116  1  0.78480000  0.02170000  0.79270000  1.0
  C  C117  1  0.84230000  0.97920000  0.76420000  1.0
  C  C118  1  0.90310000  0.02040000  0.75550000  1.0
  C  C119  1  0.71850000  0.97770000  0.80530000  1.0
  C  C120  1  0.65470000  0.01880000  0.79250000  1.0
  C  C121  1  0.20042000  0.53870000  0.06580000  1.0
  C  C122  1  0.26780000  0.56930000  0.06850000  1.0
  C  C123  1  0.32242000  0.51790000  0.04920000  1.0
  C  C124  1  0.30835000  0.43480000  0.02310000  1.0
  C  C125  1  0.24103000  0.40380000  0.02380000  1.0
  C  C126  1  0.18726000  0.45510000  0.04520000  1.0
  C  C127  1  0.14310000  0.59830000  0.07910000  1.0
  C  C128  1  0.39460000  0.55580000  0.06590000  1.0
  C  C129  1  0.36405000  0.37830000  0.99330000  1.0
  C  C130  1  0.59580000  0.97760000  0.80990000  1.0
  C  C131  1  0.65860000  0.85520000  0.84690000  1.0
  C  C132  1  0.71850000  0.89390000  0.82710000  1.0
  C  C133  1  0.53600000  0.85590000  0.87310000  1.0
  C  C134  1  0.51290000  0.78020000  0.79660000  1.0
  C  C135  1  0.11660000  0.41670000  0.05170000  1.0
  C  C136  1  0.02362000  0.72280000  0.78550000  1.0
  C  C137  1  0.02150000  0.64150000  0.72170000  1.0
  C  C138  1  0.14590000  0.64500000  0.69890000  1.0
  C  C139  1  0.20770000  0.60610000  0.69110000  1.0
  C  C140  1  0.21520000  0.52170000  0.70730000  1.0
  C  C141  1  0.15770000  0.47920000  0.73580000  1.0
  C  C142  1  0.09690000  0.52040000  0.74450000  1.0
  C  C143  1  0.28150000  0.47770000  0.69470000  1.0
  C  C144  1  0.34530000  0.51880000  0.70750000  1.0
  C  C145  1  0.79958000  0.03870000  0.43420000  1.0
  C  C146  1  0.73220000  0.06930000  0.43150000  1.0
  C  C147  1  0.67758000  0.01790000  0.45080000  1.0
  C  C148  1  0.69165000  0.93480000  0.47690000  1.0
  C  C149  1  0.75897000  0.90380000  0.47620000  1.0
  C  C150  1  0.81274000  0.95510000  0.45480000  1.0
  C  C151  1  0.85690000  0.09830000  0.42090000  1.0
  C  C152  1  0.60540000  0.05580000  0.43410000  1.0
  C  C153  1  0.63595000  0.87830000  0.50670000  1.0
  C  C154  1  0.40420000  0.47760000  0.69010000  1.0
  C  C155  1  0.34140000  0.35520000  0.65310000  1.0
  C  C156  1  0.28150000  0.39390000  0.67290000  1.0
  C  C157  1  0.46400000  0.35590000  0.62690000  1.0
  C  C158  1  0.48710000  0.28020000  0.70340000  1.0
  C  C159  1  0.88340000  0.91670000  0.44830000  1.0
  N  N160  1  0.02197000  0.76390000  0.40710000  1.0
  N  N161  1  0.02290000  0.68180000  0.42320000  1.0
  N  N162  1  0.02400000  0.64630000  0.31490000  1.0
  N  N163  1  0.02418000  0.70520000  0.22540000  1.0
  N  N164  1  0.49797000  0.22724000  0.32940000  1.0
  N  N165  1  0.52224000  0.30420000  0.35640000  1.0
  N  N166  1  0.52640000  0.34130000  0.25100000  1.0
  N  N167  1  0.50443000  0.28922000  0.15250000  1.0
  N  N168  1  0.09130000  0.89763000  0.22470000  1.0
  N  N169  1  0.40156000  0.10276000  0.16030000  1.0
  N  N170  1  0.97803000  0.26390000  0.09290000  1.0
  N  N171  1  0.97710000  0.18180000  0.07680000  1.0
  N  N172  1  0.97600000  0.14630000  0.18510000  1.0
  N  N173  1  0.97582000  0.20520000  0.27460000  1.0
  N  N174  1  0.50203000  0.72724000  0.17060000  1.0
  N  N175  1  0.47776000  0.80420000  0.14360000  1.0
  N  N176  1  0.47360000  0.84130000  0.24900000  1.0
  N  N177  1  0.49557000  0.78922000  0.34750000  1.0
  N  N178  1  0.90870000  0.39763000  0.27530000  1.0
  N  N179  1  0.59844000  0.60276000  0.33970000  1.0
  N  N180  1  0.97803000  0.23610000  0.59290000  1.0
  N  N181  1  0.97710000  0.31820000  0.57680000  1.0
  N  N182  1  0.97600000  0.35370000  0.68510000  1.0
  N  N183  1  0.97582000  0.29480000  0.77460000  1.0
  N  N184  1  0.50203000  0.77276000  0.67060000  1.0
  N  N185  1  0.47776000  0.69580000  0.64360000  1.0
  N  N186  1  0.47360000  0.65870000  0.74900000  1.0
  N  N187  1  0.49557000  0.71078000  0.84750000  1.0
  N  N188  1  0.90870000  0.10237000  0.77530000  1.0
  N  N189  1  0.59844000  0.89724000  0.83970000  1.0
  N  N190  1  0.02197000  0.73610000  0.90710000  1.0
  N  N191  1  0.02290000  0.81820000  0.92320000  1.0
  N  N192  1  0.02400000  0.85370000  0.81490000  1.0
  N  N193  1  0.02418000  0.79480000  0.72540000  1.0
  N  N194  1  0.49797000  0.27276000  0.82940000  1.0
  N  N195  1  0.52224000  0.19580000  0.85640000  1.0
  N  N196  1  0.52640000  0.15870000  0.75100000  1.0
  N  N197  1  0.50443000  0.21078000  0.65250000  1.0
  N  N198  1  0.09130000  0.60237000  0.72470000  1.0
  N  N199  1  0.40156000  0.39724000  0.66030000  1.0
  O  O200  1  0.91905000  0.61012000  0.05120000  1.0
  O  O201  1  0.89974000  0.59080000  0.84340000  1.0
  O  O202  1  0.64463000  0.69669000  0.00880000  1.0
  O  O203  1  0.58185000  0.58570000  0.03280000  1.0
  O  O204  1  0.56201000  0.45716000  0.83560000  1.0
  O  O205  1  0.59506000  0.39477000  0.02130000  1.0
  O  O206  1  0.84199000  0.33430000  0.87320000  1.0
  O  O207  1  0.91944000  0.42459000  0.96530000  1.0
  O  O208  1  0.08095000  0.11012000  0.44880000  1.0
  O  O209  1  0.10026000  0.09080000  0.65660000  1.0
  O  O210  1  0.35537000  0.19669000  0.49120000  1.0
  O  O211  1  0.41815000  0.08570000  0.46720000  1.0
  O  O212  1  0.43799000  0.95716000  0.66440000  1.0
  O  O213  1  0.40494000  0.89477000  0.47870000  1.0
  O  O214  1  0.15801000  0.83430000  0.62680000  1.0
  O  O215  1  0.08056000  0.92459000  0.53470000  1.0
  O  O216  1  0.08095000  0.38988000  0.94880000  1.0
  O  O217  1  0.10026000  0.40920000  0.15660000  1.0
  O  O218  1  0.35537000  0.30331000  0.99120000  1.0
  O  O219  1  0.41815000  0.41430000  0.96720000  1.0
  O  O220  1  0.43799000  0.54284000  0.16440000  1.0
  O  O221  1  0.40494000  0.60523000  0.97870000  1.0
  O  O222  1  0.15801000  0.66570000  0.12680000  1.0
  O  O223  1  0.08056000  0.57541000  0.03470000  1.0
  O  O224  1  0.91905000  0.88988000  0.55120000  1.0
  O  O225  1  0.89974000  0.90920000  0.34340000  1.0
  O  O226  1  0.64463000  0.80331000  0.50880000  1.0
  O  O227  1  0.58185000  0.91430000  0.53280000  1.0
  O  O228  1  0.56201000  0.04284000  0.33560000  1.0
  O  O229  1  0.59506000  0.10523000  0.52130000  1.0
  O  O230  1  0.84199000  0.16570000  0.37320000  1.0
  O  O231  1  0.91944000  0.07541000  0.46530000  1.0
