# generated using pymatgen
data_Ag2H15C16(NO2)3
_symmetry_space_group_name_H-M   'P 1'
_cell_length_a   16.54780000
_cell_length_b   16.54780000
_cell_length_c   12.43530000
_cell_angle_alpha   90.00000000
_cell_angle_beta   90.00000000
_cell_angle_gamma   120.00000000
_symmetry_Int_Tables_number   1
_chemical_formula_structural   Ag2H15C16(NO2)3
_chemical_formula_sum   'Ag12 H90 C96 N18 O36'
_cell_volume   2948.95011019
_cell_formula_units_Z   6
loop_
 _symmetry_equiv_pos_site_id
 _symmetry_equiv_pos_as_xyz
  1  'x, y, z'
loop_
 _atom_site_type_symbol
 _atom_site_label
 _atom_site_symmetry_multiplicity
 _atom_site_fract_x
 _atom_site_fract_y
 _atom_site_fract_z
 _atom_site_occupancy
  Ag  Ag0  1  0.65222000  0.34778000  0.41667000  1.0
  Ag  Ag1  1  0.39649000  0.60351000  0.41667000  1.0
  Ag  Ag2  1  0.65222000  0.30444000  0.75000000  1.0
  Ag  Ag3  1  0.39649000  0.79298000  0.75000000  1.0
  Ag  Ag4  1  0.69556000  0.34778000  0.08333000  1.0
  Ag  Ag5  1  0.20702000  0.60351000  0.08333000  1.0
  Ag  Ag6  1  0.34778000  0.65222000  0.91667000  1.0
  Ag  Ag7  1  0.60351000  0.39649000  0.91667000  1.0
  Ag  Ag8  1  0.34778000  0.69556000  0.25000000  1.0
  Ag  Ag9  1  0.60351000  0.20702000  0.25000000  1.0
  Ag  Ag10  1  0.30444000  0.65222000  0.58333000  1.0
  Ag  Ag11  1  0.79298000  0.39649000  0.58333000  1.0
  H  H12  1  0.13970000  0.35070000  0.35250000  1.0
  H  H13  1  0.32870000  0.38760000  0.55380000  1.0
  H  H14  1  0.30230000  0.31930000  0.45250000  1.0
  H  H15  1  0.30450000  0.41670000  0.44080000  1.0
  H  H16  1  0.40630000  0.24610000  0.40780000  1.0
  H  H17  1  0.39130000  0.27130000  0.52770000  1.0
  H  H18  1  0.48430000  0.26940000  0.49740000  1.0
  H  H19  1  0.64930000  0.78900000  0.68583000  1.0
  H  H20  1  0.61240000  0.94110000  0.88713000  1.0
  H  H21  1  0.68070000  0.98300000  0.78583000  1.0
  H  H22  1  0.58330000  0.88780000  0.77413000  1.0
  H  H23  1  0.75390000  0.16020000  0.74113000  1.0
  H  H24  1  0.72870000  0.12000000  0.86103000  1.0
  H  H25  1  0.73060000  0.21490000  0.83073000  1.0
  H  H26  1  0.21100000  0.86030000  0.01917000  1.0
  H  H27  1  0.05890000  0.67130000  0.22047000  1.0
  H  H28  1  0.01700000  0.69770000  0.11917000  1.0
  H  H29  1  0.11220000  0.69550000  0.10747000  1.0
  H  H30  1  0.83980000  0.59370000  0.07447000  1.0
  H  H31  1  0.88000000  0.60870000  0.19437000  1.0
  H  H32  1  0.78510000  0.51570000  0.16407000  1.0
  H  H33  1  0.86030000  0.64930000  0.85250000  1.0
  H  H34  1  0.67130000  0.61240000  0.05380000  1.0
  H  H35  1  0.69770000  0.68070000  0.95250000  1.0
  H  H36  1  0.69550000  0.58330000  0.94080000  1.0
  H  H37  1  0.59370000  0.75390000  0.90780000  1.0
  H  H38  1  0.60870000  0.72870000  0.02770000  1.0
  H  H39  1  0.51570000  0.73060000  0.99740000  1.0
  H  H40  1  0.35070000  0.21100000  0.18583000  1.0
  H  H41  1  0.38760000  0.05890000  0.38713000  1.0
  H  H42  1  0.31930000  0.01700000  0.28583000  1.0
  H  H43  1  0.41670000  0.11220000  0.27413000  1.0
  H  H44  1  0.24610000  0.83980000  0.24113000  1.0
  H  H45  1  0.27130000  0.88000000  0.36103000  1.0
  H  H46  1  0.26940000  0.78510000  0.33073000  1.0
  H  H47  1  0.78900000  0.13970000  0.51917000  1.0
  H  H48  1  0.94110000  0.32870000  0.72047000  1.0
  H  H49  1  0.98300000  0.30230000  0.61917000  1.0
  H  H50  1  0.88780000  0.30450000  0.60747000  1.0
  H  H51  1  0.16020000  0.40630000  0.57447000  1.0
  H  H52  1  0.12000000  0.39130000  0.69437000  1.0
  H  H53  1  0.21490000  0.48430000  0.66407000  1.0
  H  H54  1  0.35070000  0.13970000  0.98083000  1.0
  H  H55  1  0.38760000  0.32870000  0.77953000  1.0
  H  H56  1  0.31930000  0.30230000  0.88083000  1.0
  H  H57  1  0.41670000  0.30450000  0.89253000  1.0
  H  H58  1  0.24610000  0.40630000  0.92553000  1.0
  H  H59  1  0.27130000  0.39130000  0.80563000  1.0
  H  H60  1  0.26940000  0.48430000  0.83593000  1.0
  H  H61  1  0.78900000  0.64930000  0.64750000  1.0
  H  H62  1  0.94110000  0.61240000  0.44620000  1.0
  H  H63  1  0.98300000  0.68070000  0.54750000  1.0
  H  H64  1  0.88780000  0.58330000  0.55920000  1.0
  H  H65  1  0.16020000  0.75390000  0.59220000  1.0
  H  H66  1  0.12000000  0.72870000  0.47230000  1.0
  H  H67  1  0.21490000  0.73060000  0.50260000  1.0
  H  H68  1  0.86030000  0.21100000  0.31417000  1.0
  H  H69  1  0.67130000  0.05890000  0.11287000  1.0
  H  H70  1  0.69770000  0.01700000  0.21417000  1.0
  H  H71  1  0.69550000  0.11220000  0.22587000  1.0
  H  H72  1  0.59370000  0.83980000  0.25887000  1.0
  H  H73  1  0.60870000  0.88000000  0.13897000  1.0
  H  H74  1  0.51570000  0.78510000  0.16927000  1.0
  H  H75  1  0.64930000  0.86030000  0.48083000  1.0
  H  H76  1  0.61240000  0.67130000  0.27953000  1.0
  H  H77  1  0.68070000  0.69770000  0.38083000  1.0
  H  H78  1  0.58330000  0.69550000  0.39253000  1.0
  H  H79  1  0.75390000  0.59370000  0.42553000  1.0
  H  H80  1  0.72870000  0.60870000  0.30563000  1.0
  H  H81  1  0.73060000  0.51570000  0.33593000  1.0
  H  H82  1  0.21100000  0.35070000  0.14750000  1.0
  H  H83  1  0.05890000  0.38760000  0.94620000  1.0
  H  H84  1  0.01700000  0.31930000  0.04750000  1.0
  H  H85  1  0.11220000  0.41670000  0.05920000  1.0
  H  H86  1  0.83980000  0.24610000  0.09220000  1.0
  H  H87  1  0.88000000  0.27130000  0.97230000  1.0
  H  H88  1  0.78510000  0.26940000  0.00260000  1.0
  H  H89  1  0.13970000  0.78900000  0.81417000  1.0
  H  H90  1  0.32870000  0.94110000  0.61287000  1.0
  H  H91  1  0.30230000  0.98300000  0.71417000  1.0
  H  H92  1  0.30450000  0.88780000  0.72587000  1.0
  H  H93  1  0.40630000  0.16020000  0.75887000  1.0
  H  H94  1  0.39130000  0.12000000  0.63897000  1.0
  H  H95  1  0.48430000  0.21490000  0.66927000  1.0
  H  H96  1  0.00000000  0.49240000  0.33333333  1.0
  H  H97  1  0.50760000  0.50760000  0.66666667  1.0
  H  H98  1  0.49240000  0.00000000  0.00000000  1.0
  H  H99  1  0.00000000  0.50760000  0.83333000  1.0
  H  H100  1  0.49240000  0.49240000  0.16667000  1.0
  H  H101  1  0.50760000  0.00000000  0.50000000  1.0
  C  C102  1  0.08390000  0.43460000  0.34100000  1.0
  C  C103  1  0.08320000  0.35180000  0.34370000  1.0
  C  C104  1  0.17880000  0.52390000  0.34510000  1.0
  C  C105  1  0.33380000  0.38470000  0.47550000  1.0
  C  C106  1  0.43750000  0.28430000  0.47110000  1.0
  C  C107  1  0.48200000  0.38090000  0.44270000  1.0
  C  C108  1  0.43420000  0.43110000  0.44450000  1.0
  C  C109  1  0.56540000  0.64930000  0.67433000  1.0
  C  C110  1  0.64820000  0.73140000  0.67703000  1.0
  C  C111  1  0.47610000  0.65490000  0.67843000  1.0
  C  C112  1  0.61530000  0.94910000  0.80883000  1.0
  C  C113  1  0.71570000  0.15320000  0.80443000  1.0
  C  C114  1  0.61910000  0.10110000  0.77603000  1.0
  C  C115  1  0.56890000  0.00310000  0.77783000  1.0
  C  C116  1  0.35070000  0.91610000  0.00767000  1.0
  C  C117  1  0.26860000  0.91680000  0.01037000  1.0
  C  C118  1  0.34510000  0.82120000  0.01177000  1.0
  C  C119  1  0.05090000  0.66620000  0.14217000  1.0
  C  C120  1  0.84680000  0.56250000  0.13777000  1.0
  C  C121  1  0.89890000  0.51800000  0.10937000  1.0
  C  C122  1  0.99690000  0.56580000  0.11117000  1.0
  C  C123  1  0.91610000  0.56540000  0.84100000  1.0
  C  C124  1  0.91680000  0.64820000  0.84370000  1.0
  C  C125  1  0.82120000  0.47610000  0.84510000  1.0
  C  C126  1  0.66620000  0.61530000  0.97550000  1.0
  C  C127  1  0.56250000  0.71570000  0.97110000  1.0
  C  C128  1  0.51800000  0.61910000  0.94270000  1.0
  C  C129  1  0.56580000  0.56890000  0.94450000  1.0
  C  C130  1  0.43460000  0.35070000  0.17433000  1.0
  C  C131  1  0.35180000  0.26860000  0.17703000  1.0
  C  C132  1  0.52390000  0.34510000  0.17843000  1.0
  C  C133  1  0.38470000  0.05090000  0.30883000  1.0
  C  C134  1  0.28430000  0.84680000  0.30443000  1.0
  C  C135  1  0.38090000  0.89890000  0.27603000  1.0
  C  C136  1  0.43110000  0.99690000  0.27783000  1.0
  C  C137  1  0.64930000  0.08390000  0.50767000  1.0
  C  C138  1  0.73140000  0.08320000  0.51037000  1.0
  C  C139  1  0.65490000  0.17880000  0.51177000  1.0
  C  C140  1  0.94910000  0.33380000  0.64217000  1.0
  C  C141  1  0.15320000  0.43750000  0.63777000  1.0
  C  C142  1  0.10110000  0.48200000  0.60937000  1.0
  C  C143  1  0.00310000  0.43420000  0.61117000  1.0
  C  C144  1  0.43460000  0.08390000  0.99233000  1.0
  C  C145  1  0.35180000  0.08320000  0.98963000  1.0
  C  C146  1  0.52390000  0.17880000  0.98823000  1.0
  C  C147  1  0.38470000  0.33380000  0.85783000  1.0
  C  C148  1  0.28430000  0.43750000  0.86223000  1.0
  C  C149  1  0.38090000  0.48200000  0.89063000  1.0
  C  C150  1  0.43110000  0.43420000  0.88883000  1.0
  C  C151  1  0.64930000  0.56540000  0.65900000  1.0
  C  C152  1  0.73140000  0.64820000  0.65630000  1.0
  C  C153  1  0.65490000  0.47610000  0.65490000  1.0
  C  C154  1  0.94910000  0.61530000  0.52450000  1.0
  C  C155  1  0.15320000  0.71570000  0.52890000  1.0
  C  C156  1  0.10110000  0.61910000  0.55730000  1.0
  C  C157  1  0.00310000  0.56890000  0.55550000  1.0
  C  C158  1  0.91610000  0.35070000  0.32567000  1.0
  C  C159  1  0.91680000  0.26860000  0.32297000  1.0
  C  C160  1  0.82120000  0.34510000  0.32157000  1.0
  C  C161  1  0.66620000  0.05090000  0.19117000  1.0
  C  C162  1  0.56250000  0.84680000  0.19557000  1.0
  C  C163  1  0.51800000  0.89890000  0.22397000  1.0
  C  C164  1  0.56580000  0.99690000  0.22217000  1.0
  C  C165  1  0.56540000  0.91610000  0.49233000  1.0
  C  C166  1  0.64820000  0.91680000  0.48963000  1.0
  C  C167  1  0.47610000  0.82120000  0.48823000  1.0
  C  C168  1  0.61530000  0.66620000  0.35783000  1.0
  C  C169  1  0.71570000  0.56250000  0.36223000  1.0
  C  C170  1  0.61910000  0.51800000  0.39063000  1.0
  C  C171  1  0.56890000  0.56580000  0.38883000  1.0
  C  C172  1  0.35070000  0.43460000  0.15900000  1.0
  C  C173  1  0.26860000  0.35180000  0.15630000  1.0
  C  C174  1  0.34510000  0.52390000  0.15490000  1.0
  C  C175  1  0.05090000  0.38470000  0.02450000  1.0
  C  C176  1  0.84680000  0.28430000  0.02890000  1.0
  C  C177  1  0.89890000  0.38090000  0.05730000  1.0
  C  C178  1  0.99690000  0.43110000  0.05550000  1.0
  C  C179  1  0.08390000  0.64930000  0.82567000  1.0
  C  C180  1  0.08320000  0.73140000  0.82297000  1.0
  C  C181  1  0.17880000  0.65490000  0.82157000  1.0
  C  C182  1  0.33380000  0.94910000  0.69117000  1.0
  C  C183  1  0.43750000  0.15320000  0.69557000  1.0
  C  C184  1  0.48200000  0.10110000  0.72397000  1.0
  C  C185  1  0.43420000  0.00310000  0.72217000  1.0
  C  C186  1  0.00000000  0.43500000  0.33333333  1.0
  C  C187  1  0.00000000  0.27040000  0.33333333  1.0
  C  C188  1  0.56500000  0.56500000  0.66666667  1.0
  C  C189  1  0.72960000  0.72960000  0.66666667  1.0
  C  C190  1  0.43500000  0.00000000  0.00000000  1.0
  C  C191  1  0.27040000  0.00000000  0.00000000  1.0
  C  C192  1  0.00000000  0.56500000  0.83333000  1.0
  C  C193  1  0.00000000  0.72960000  0.83333000  1.0
  C  C194  1  0.43500000  0.43500000  0.16667000  1.0
  C  C195  1  0.27040000  0.27040000  0.16667000  1.0
  C  C196  1  0.56500000  0.00000000  0.50000000  1.0
  C  C197  1  0.72960000  0.00000000  0.50000000  1.0
  N  N198  1  0.57400000  0.42600000  0.41667000  1.0
  N  N199  1  0.47840000  0.52160000  0.41667000  1.0
  N  N200  1  0.57400000  0.14800000  0.75000000  1.0
  N  N201  1  0.47840000  0.95680000  0.75000000  1.0
  N  N202  1  0.85200000  0.42600000  0.08333000  1.0
  N  N203  1  0.04320000  0.52160000  0.08333000  1.0
  N  N204  1  0.42600000  0.57400000  0.91667000  1.0
  N  N205  1  0.52160000  0.47840000  0.91667000  1.0
  N  N206  1  0.42600000  0.85200000  0.25000000  1.0
  N  N207  1  0.52160000  0.04320000  0.25000000  1.0
  N  N208  1  0.14800000  0.57400000  0.58333000  1.0
  N  N209  1  0.95680000  0.47840000  0.58333000  1.0
  N  N210  1  0.00000000  0.18210000  0.33333333  1.0
  N  N211  1  0.81790000  0.81790000  0.66666667  1.0
  N  N212  1  0.18210000  0.00000000  0.00000000  1.0
  N  N213  1  0.00000000  0.81790000  0.83333000  1.0
  N  N214  1  0.18210000  0.18210000  0.16667000  1.0
  N  N215  1  0.81790000  0.00000000  0.50000000  1.0
  O  O216  1  0.18800000  0.59710000  0.30560000  1.0
  O  O217  1  0.24180000  0.51320000  0.38620000  1.0
  O  O218  1  0.06970000  0.18170000  0.36630000  1.0
  O  O219  1  0.40290000  0.59090000  0.63893000  1.0
  O  O220  1  0.48680000  0.72860000  0.71953000  1.0
  O  O221  1  0.81830000  0.88800000  0.69963000  1.0
  O  O222  1  0.40910000  0.81200000  0.97227000  1.0
  O  O223  1  0.27140000  0.75820000  0.05287000  1.0
  O  O224  1  0.11200000  0.93030000  0.03297000  1.0
  O  O225  1  0.81200000  0.40290000  0.80560000  1.0
  O  O226  1  0.75820000  0.48680000  0.88620000  1.0
  O  O227  1  0.93030000  0.81830000  0.86630000  1.0
  O  O228  1  0.59710000  0.40910000  0.13893000  1.0
  O  O229  1  0.51320000  0.27140000  0.21953000  1.0
  O  O230  1  0.18170000  0.11200000  0.19963000  1.0
  O  O231  1  0.59090000  0.18800000  0.47227000  1.0
  O  O232  1  0.72860000  0.24180000  0.55287000  1.0
  O  O233  1  0.88800000  0.06970000  0.53297000  1.0
  O  O234  1  0.59710000  0.18800000  0.02773000  1.0
  O  O235  1  0.51320000  0.24180000  0.94713000  1.0
  O  O236  1  0.18170000  0.06970000  0.96703000  1.0
  O  O237  1  0.59090000  0.40290000  0.69440000  1.0
  O  O238  1  0.72860000  0.48680000  0.61380000  1.0
  O  O239  1  0.88800000  0.81830000  0.63370000  1.0
  O  O240  1  0.81200000  0.40910000  0.36107000  1.0
  O  O241  1  0.75820000  0.27140000  0.28047000  1.0
  O  O242  1  0.93030000  0.11200000  0.30037000  1.0
  O  O243  1  0.40290000  0.81200000  0.52773000  1.0
  O  O244  1  0.48680000  0.75820000  0.44713000  1.0
  O  O245  1  0.81830000  0.93030000  0.46703000  1.0
  O  O246  1  0.40910000  0.59710000  0.19440000  1.0
  O  O247  1  0.27140000  0.51320000  0.11380000  1.0
  O  O248  1  0.11200000  0.18170000  0.13370000  1.0
  O  O249  1  0.18800000  0.59090000  0.86107000  1.0
  O  O250  1  0.24180000  0.72860000  0.78047000  1.0
  O  O251  1  0.06970000  0.88800000  0.80037000  1.0
