# generated using pymatgen
data_Zn4H18C36O13
_symmetry_space_group_name_H-M   'P 1'
_cell_length_a   18.60860000
_cell_length_b   20.24220000
_cell_length_c   20.81350000
_cell_angle_alpha   70.42100000
_cell_angle_beta   68.95500000
_cell_angle_gamma   68.03100000
_symmetry_Int_Tables_number   1
_chemical_formula_structural   Zn4H18C36O13
_chemical_formula_sum   'Zn16 H72 C144 O52'
_cell_volume   6600.67756014
_cell_formula_units_Z   4
loop_
 _symmetry_equiv_pos_site_id
 _symmetry_equiv_pos_as_xyz
  1  'x, y, z'
loop_
 _atom_site_type_symbol
 _atom_site_label
 _atom_site_symmetry_multiplicity
 _atom_site_fract_x
 _atom_site_fract_y
 _atom_site_fract_z
 _atom_site_occupancy
  Zn  Zn0  1  0.36447000  0.21225000  0.52309000  1.0
  Zn  Zn1  1  0.38468000  0.35848000  0.52669000  1.0
  Zn  Zn2  1  0.21932000  0.35233000  0.52529000  1.0
  Zn  Zn3  1  0.36429000  0.34106000  0.38270000  1.0
  Zn  Zn4  1  0.80098000  0.79175000  0.09395000  1.0
  Zn  Zn5  1  0.80413000  0.92156000  0.95983000  1.0
  Zn  Zn6  1  0.94887000  0.77754000  0.95973000  1.0
  Zn  Zn7  1  0.77454000  0.77668000  0.95546000  1.0
  Zn  Zn8  1  0.63553000  0.78775000  0.47691000  1.0
  Zn  Zn9  1  0.61532000  0.64152000  0.47331000  1.0
  Zn  Zn10  1  0.78068000  0.64767000  0.47471000  1.0
  Zn  Zn11  1  0.63571000  0.65894000  0.61730000  1.0
  Zn  Zn12  1  0.19902000  0.20825000  0.90605000  1.0
  Zn  Zn13  1  0.19587000  0.07844000  0.04017000  1.0
  Zn  Zn14  1  0.05113000  0.22246000  0.04027000  1.0
  Zn  Zn15  1  0.22546000  0.22332000  0.04454000  1.0
  H  H16  1  0.23330000  0.06890000  0.66870000  1.0
  H  H17  1  0.48410000  0.53990000  0.42460000  1.0
  H  H18  1  0.94140000  0.05590000  0.81590000  1.0
  H  H19  1  0.63650000  0.67470000  0.24090000  1.0
  H  H20  1  0.53940000  0.45410000  0.25920000  1.0
  H  H21  1  0.54910000  0.62590000  0.35540000  1.0
  H  H22  1  0.88740000  0.61590000  0.83220000  1.0
  H  H23  1  0.93840000  0.67850000  0.24180000  1.0
  H  H24  1  0.07990000  0.47160000  0.68430000  1.0
  H  H25  1  0.60310000  0.94750000  0.36200000  1.0
  H  H26  1  0.52420000  0.03010000  0.43050000  1.0
  H  H27  1  0.03880000  0.53140000  0.43340000  1.0
  H  H28  1  0.13360000  0.88370000  0.83320000  1.0
  H  H29  1  0.95900000  0.61780000  0.36330000  1.0
  H  H30  1  0.67830000  0.09040000  0.07060000  1.0
  H  H31  1  0.60800000  0.17180000  0.13900000  1.0
  H  H32  1  0.67710000  0.92300000  0.24180000  1.0
  H  H33  1  0.21700000  0.94980000  0.75120000  1.0
  H  H34  1  0.52920000  0.19700000  0.26050000  1.0
  H  H35  1  0.12410000  0.63940000  0.07230000  1.0
  H  H36  1  0.09550000  0.64220000  0.81730000  1.0
  H  H37  1  0.20560000  0.56580000  0.14080000  1.0
  H  H38  1  0.22610000  0.50270000  0.26310000  1.0
  H  H39  1  0.22260000  0.57590000  0.74340000  1.0
  H  H40  1  0.95260000  0.53290000  0.76270000  1.0
  H  H41  1  0.28850000  0.49810000  0.66900000  1.0
  H  H42  1  0.95950000  0.17260000  0.73330000  1.0
  H  H43  1  0.69950000  0.58270000  0.07670000  1.0
  H  H44  1  0.55960000  0.95830000  0.73760000  1.0
  H  H45  1  0.03930000  0.24250000  0.65490000  1.0
  H  H46  1  0.50870000  0.07650000  0.65770000  1.0
  H  H47  1  0.62350000  0.50490000  0.14330000  1.0
  H  H48  1  0.56860000  0.25340000  0.63960000  1.0
  H  H49  1  0.71000000  0.06660000  0.78630000  1.0
  H  H50  1  0.65090000  0.88900000  0.80620000  1.0
  H  H51  1  0.65720000  0.18310000  0.70750000  1.0
  H  H52  1  0.76670000  0.93110000  0.33130000  1.0
  H  H53  1  0.51590000  0.46010000  0.57540000  1.0
  H  H54  1  0.05860000  0.94410000  0.18410000  1.0
  H  H55  1  0.36350000  0.32530000  0.75910000  1.0
  H  H56  1  0.46060000  0.54590000  0.74080000  1.0
  H  H57  1  0.45090000  0.37410000  0.64460000  1.0
  H  H58  1  0.11260000  0.38410000  0.16780000  1.0
  H  H59  1  0.06160000  0.32150000  0.75820000  1.0
  H  H60  1  0.92010000  0.52840000  0.31570000  1.0
  H  H61  1  0.39690000  0.05250000  0.63800000  1.0
  H  H62  1  0.47580000  0.96990000  0.56950000  1.0
  H  H63  1  0.96120000  0.46860000  0.56660000  1.0
  H  H64  1  0.86640000  0.11630000  0.16680000  1.0
  H  H65  1  0.04100000  0.38220000  0.63670000  1.0
  H  H66  1  0.32170000  0.90960000  0.92940000  1.0
  H  H67  1  0.39200000  0.82820000  0.86100000  1.0
  H  H68  1  0.32290000  0.07700000  0.75820000  1.0
  H  H69  1  0.78300000  0.05020000  0.24880000  1.0
  H  H70  1  0.47080000  0.80300000  0.73950000  1.0
  H  H71  1  0.87590000  0.36060000  0.92770000  1.0
  H  H72  1  0.90450000  0.35780000  0.18270000  1.0
  H  H73  1  0.79440000  0.43420000  0.85920000  1.0
  H  H74  1  0.77390000  0.49730000  0.73690000  1.0
  H  H75  1  0.77740000  0.42410000  0.25660000  1.0
  H  H76  1  0.04740000  0.46710000  0.23730000  1.0
  H  H77  1  0.71150000  0.50190000  0.33100000  1.0
  H  H78  1  0.04050000  0.82740000  0.26670000  1.0
  H  H79  1  0.30050000  0.41730000  0.92330000  1.0
  H  H80  1  0.44040000  0.04170000  0.26240000  1.0
  H  H81  1  0.96070000  0.75750000  0.34510000  1.0
  H  H82  1  0.49130000  0.92350000  0.34230000  1.0
  H  H83  1  0.37650000  0.49510000  0.85670000  1.0
  H  H84  1  0.43140000  0.74660000  0.36040000  1.0
  H  H85  1  0.29000000  0.93340000  0.21370000  1.0
  H  H86  1  0.34910000  0.11100000  0.19380000  1.0
  H  H87  1  0.34280000  0.81690000  0.29250000  1.0
  C  C88  1  0.46040000  0.43260000  0.39470000  1.0
  C  C89  1  0.94010000  0.68930000  0.88070000  1.0
  C  C90  1  0.97510000  0.91910000  0.88560000  1.0
  C  C91  1  0.20030000  0.20760000  0.60260000  1.0
  C  C92  1  0.17810000  0.09030000  0.68290000  1.0
  C  C93  1  0.50920000  0.54010000  0.37700000  1.0
  C  C94  1  0.50600000  0.48770000  0.34780000  1.0
  C  C95  1  0.99680000  0.03510000  0.80280000  1.0
  C  C96  1  0.63450000  0.64030000  0.22160000  1.0
  C  C97  1  0.54290000  0.48780000  0.27830000  1.0
  C  C98  1  0.98490000  0.63690000  0.83200000  1.0
  C  C99  1  0.12950000  0.04680000  0.73380000  1.0
  C  C100  1  0.58930000  0.59030000  0.26420000  1.0
  C  C101  1  0.14690000  0.16300000  0.65370000  1.0
  C  C102  1  0.54870000  0.59080000  0.33610000  1.0
  C  C103  1  0.04560000  0.07890000  0.75240000  1.0
  C  C104  1  0.94310000  0.60430000  0.81460000  1.0
  C  C105  1  0.02890000  0.96320000  0.83270000  1.0
  C  C106  1  0.04150000  0.60910000  0.26770000  1.0
  C  C107  1  0.99210000  0.65550000  0.22230000  1.0
  C  C108  1  0.10830000  0.49270000  0.69640000  1.0
  C  C109  1  0.58890000  0.99720000  0.34090000  1.0
  C  C110  1  0.54140000  0.04690000  0.38170000  1.0
  C  C111  1  0.51820000  0.12200000  0.35200000  1.0
  C  C112  1  0.61610000  0.02140000  0.26710000  1.0
  C  C113  1  0.14010000  0.50880000  0.35470000  1.0
  C  C114  1  0.06680000  0.53930000  0.74320000  1.0
  C  C115  1  0.06000000  0.54290000  0.38460000  1.0
  C  C116  1  0.46410000  0.17490000  0.39750000  1.0
  C  C117  1  0.11160000  0.93250000  0.81280000  1.0
  C  C118  1  0.01160000  0.59360000  0.34250000  1.0
  C  C119  1  0.66350000  0.07380000  0.11950000  1.0
  C  C120  1  0.67530000  0.63860000  0.15230000  1.0
  C  C121  1  0.62050000  0.12200000  0.16000000  1.0
  C  C122  1  0.23260000  0.42830000  0.61770000  1.0
  C  C123  1  0.02200000  0.66720000  0.15030000  1.0
  C  C124  1  0.72370000  0.69060000  0.10790000  1.0
  C  C125  1  0.19300000  0.45350000  0.40020000  1.0
  C  C126  1  0.66240000  0.97310000  0.22230000  1.0
  C  C127  1  0.68640000  0.99850000  0.15010000  1.0
  C  C128  1  0.16190000  0.97200000  0.76420000  1.0
  C  C129  1  0.19010000  0.47760000  0.66800000  1.0
  C  C130  1  0.59330000  0.09780000  0.23600000  1.0
  C  C131  1  0.73450000  0.94470000  0.10360000  1.0
  C  C132  1  0.54410000  0.14700000  0.28040000  1.0
  C  C133  1  0.96750000  0.71340000  0.10320000  1.0
  C  C134  1  0.10380000  0.63160000  0.12120000  1.0
  C  C135  1  0.06750000  0.62050000  0.80530000  1.0
  C  C136  1  0.15220000  0.58780000  0.16180000  1.0
  C  C137  1  0.10970000  0.57240000  0.76090000  1.0
  C  C138  1  0.12350000  0.57350000  0.23790000  1.0
  C  C139  1  0.58620000  0.53800000  0.23500000  1.0
  C  C140  1  0.17210000  0.52450000  0.28250000  1.0
  C  C141  1  0.19330000  0.55520000  0.73180000  1.0
  C  C142  1  0.98160000  0.55550000  0.77240000  1.0
  C  C143  1  0.23290000  0.50890000  0.68700000  1.0
  C  C144  1  0.01490000  0.15150000  0.72140000  1.0
  C  C145  1  0.67140000  0.58510000  0.12340000  1.0
  C  C146  1  0.59170000  0.97960000  0.74480000  1.0
  C  C147  1  0.58930000  0.05330000  0.71270000  1.0
  C  C148  1  0.46970000  0.21520000  0.59920000  1.0
  C  C149  1  0.06250000  0.19350000  0.67400000  1.0
  C  C150  1  0.52780000  0.17150000  0.64300000  1.0
  C  C151  1  0.73820000  0.92910000  0.85690000  1.0
  C  C152  1  0.53740000  0.09800000  0.66910000  1.0
  C  C153  1  0.68740000  0.97310000  0.80480000  1.0
  C  C154  1  0.62690000  0.53780000  0.16350000  1.0
  C  C155  1  0.57370000  0.20370000  0.65770000  1.0
  C  C156  1  0.68140000  0.04450000  0.77530000  1.0
  C  C157  1  0.63340000  0.08690000  0.72840000  1.0
  C  C158  1  0.64430000  0.93900000  0.78820000  1.0
  C  C159  1  0.62620000  0.16150000  0.69910000  1.0
  C  C160  1  0.53960000  0.56740000  0.60530000  1.0
  C  C161  1  0.05990000  0.31070000  0.11930000  1.0
  C  C162  1  0.02490000  0.08090000  0.11440000  1.0
  C  C163  1  0.79970000  0.79240000  0.39740000  1.0
  C  C164  1  0.82190000  0.90970000  0.31710000  1.0
  C  C165  1  0.49080000  0.45990000  0.62300000  1.0
  C  C166  1  0.49400000  0.51230000  0.65220000  1.0
  C  C167  1  0.00320000  0.96490000  0.19720000  1.0
  C  C168  1  0.36550000  0.35970000  0.77840000  1.0
  C  C169  1  0.45710000  0.51220000  0.72170000  1.0
  C  C170  1  0.01510000  0.36310000  0.16800000  1.0
  C  C171  1  0.87050000  0.95320000  0.26620000  1.0
  C  C172  1  0.41070000  0.40970000  0.73580000  1.0
  C  C173  1  0.85310000  0.83700000  0.34630000  1.0
  C  C174  1  0.45130000  0.40920000  0.66390000  1.0
  C  C175  1  0.95440000  0.92110000  0.24760000  1.0
  C  C176  1  0.05690000  0.39570000  0.18540000  1.0
  C  C177  1  0.97110000  0.03680000  0.16730000  1.0
  C  C178  1  0.95850000  0.39090000  0.73230000  1.0
  C  C179  1  0.00790000  0.34450000  0.77770000  1.0
  C  C180  1  0.89170000  0.50730000  0.30360000  1.0
  C  C181  1  0.41110000  0.00280000  0.65910000  1.0
  C  C182  1  0.45860000  0.95310000  0.61830000  1.0
  C  C183  1  0.48180000  0.87800000  0.64800000  1.0
  C  C184  1  0.38390000  0.97860000  0.73290000  1.0
  C  C185  1  0.85990000  0.49120000  0.64530000  1.0
  C  C186  1  0.93320000  0.46070000  0.25680000  1.0
  C  C187  1  0.94000000  0.45710000  0.61540000  1.0
  C  C188  1  0.53590000  0.82510000  0.60250000  1.0
  C  C189  1  0.88840000  0.06750000  0.18720000  1.0
  C  C190  1  0.98840000  0.40640000  0.65750000  1.0
  C  C191  1  0.33650000  0.92620000  0.88050000  1.0
  C  C192  1  0.32470000  0.36140000  0.84770000  1.0
  C  C193  1  0.37950000  0.87800000  0.84000000  1.0
  C  C194  1  0.76740000  0.57170000  0.38230000  1.0
  C  C195  1  0.97800000  0.33280000  0.84970000  1.0
  C  C196  1  0.27630000  0.30940000  0.89210000  1.0
  C  C197  1  0.80700000  0.54650000  0.59980000  1.0
  C  C198  1  0.33760000  0.02690000  0.77770000  1.0
  C  C199  1  0.31360000  0.00150000  0.84990000  1.0
  C  C200  1  0.83810000  0.02800000  0.23580000  1.0
  C  C201  1  0.80990000  0.52240000  0.33200000  1.0
  C  C202  1  0.40670000  0.90220000  0.76400000  1.0
  C  C203  1  0.26550000  0.05530000  0.89640000  1.0
  C  C204  1  0.45590000  0.85300000  0.71960000  1.0
  C  C205  1  0.03250000  0.28660000  0.89680000  1.0
  C  C206  1  0.89620000  0.36840000  0.87880000  1.0
  C  C207  1  0.93250000  0.37950000  0.19470000  1.0
  C  C208  1  0.84780000  0.41220000  0.83820000  1.0
  C  C209  1  0.89030000  0.42760000  0.23910000  1.0
  C  C210  1  0.87650000  0.42650000  0.76210000  1.0
  C  C211  1  0.41380000  0.46200000  0.76500000  1.0
  C  C212  1  0.82790000  0.47550000  0.71750000  1.0
  C  C213  1  0.80670000  0.44480000  0.26820000  1.0
  C  C214  1  0.01840000  0.44450000  0.22760000  1.0
  C  C215  1  0.76710000  0.49110000  0.31300000  1.0
  C  C216  1  0.98510000  0.84850000  0.27860000  1.0
  C  C217  1  0.32860000  0.41490000  0.87660000  1.0
  C  C218  1  0.40830000  0.02040000  0.25520000  1.0
  C  C219  1  0.41070000  0.94670000  0.28730000  1.0
  C  C220  1  0.53030000  0.78480000  0.40080000  1.0
  C  C221  1  0.93750000  0.80650000  0.32600000  1.0
  C  C222  1  0.47220000  0.82850000  0.35700000  1.0
  C  C223  1  0.26180000  0.07090000  0.14310000  1.0
  C  C224  1  0.46260000  0.90200000  0.33090000  1.0
  C  C225  1  0.31260000  0.02690000  0.19520000  1.0
  C  C226  1  0.37310000  0.46220000  0.83650000  1.0
  C  C227  1  0.42630000  0.79630000  0.34230000  1.0
  C  C228  1  0.31860000  0.95550000  0.22470000  1.0
  C  C229  1  0.36660000  0.91310000  0.27160000  1.0
  C  C230  1  0.35570000  0.06100000  0.21180000  1.0
  C  C231  1  0.37380000  0.83850000  0.30090000  1.0
  O  O232  1  0.33436000  0.31732000  0.48980000  1.0
  O  O233  1  0.83428000  0.81613000  0.99137000  1.0
  O  O234  1  0.00620000  0.85140000  0.90356000  1.0
  O  O235  1  0.15640000  0.42470000  0.46280000  1.0
  O  O236  1  0.43030000  0.14789000  0.45914000  1.0
  O  O237  1  0.19140000  0.40440000  0.59990000  1.0
  O  O238  1  0.27420000  0.17412000  0.58436000  1.0
  O  O239  1  0.90270000  0.95270000  0.90710000  1.0
  O  O240  1  0.30780000  0.41410000  0.59730000  1.0
  O  O241  1  0.43910000  0.42840000  0.45977000  1.0
  O  O242  1  0.98580000  0.71120000  0.89800000  1.0
  O  O243  1  0.73210000  0.72900000  0.14030000  1.0
  O  O244  1  0.46290000  0.28324000  0.57665000  1.0
  O  O245  1  0.75300000  0.97130000  0.03757000  1.0
  O  O246  1  0.00010000  0.72190000  0.03732000  1.0
  O  O247  1  0.74400000  0.96810000  0.89120000  1.0
  O  O248  1  0.44660000  0.39590000  0.36567000  1.0
  O  O249  1  0.89560000  0.74100000  0.13166000  1.0
  O  O250  1  0.74990000  0.87770000  0.13396000  1.0
  O  O251  1  0.43220000  0.18260000  0.58860000  1.0
  O  O252  1  0.16750000  0.27430000  0.57922000  1.0
  O  O253  1  0.86700000  0.70680000  0.89888000  1.0
  O  O254  1  0.26640000  0.43970000  0.37587000  1.0
  O  O255  1  0.45550000  0.24180000  0.37050000  1.0
  O  O256  1  0.75660000  0.69030000  0.04520000  1.0
  O  O257  1  0.76241000  0.86330000  0.86618000  1.0
  O  O258  1  0.66564000  0.68268000  0.51020000  1.0
  O  O259  1  0.16572000  0.18387000  0.00863000  1.0
  O  O260  1  0.99380000  0.14860000  0.09644000  1.0
  O  O261  1  0.84360000  0.57530000  0.53720000  1.0
  O  O262  1  0.56970000  0.85211000  0.54086000  1.0
  O  O263  1  0.80860000  0.59560000  0.40010000  1.0
  O  O264  1  0.72580000  0.82588000  0.41564000  1.0
  O  O265  1  0.09730000  0.04730000  0.09290000  1.0
  O  O266  1  0.69220000  0.58590000  0.40270000  1.0
  O  O267  1  0.56090000  0.57160000  0.54023000  1.0
  O  O268  1  0.01420000  0.28880000  0.10200000  1.0
  O  O269  1  0.26790000  0.27100000  0.85970000  1.0
  O  O270  1  0.53710000  0.71676000  0.42335000  1.0
  O  O271  1  0.24700000  0.02870000  0.96243000  1.0
  O  O272  1  0.99990000  0.27810000  0.96268000  1.0
  O  O273  1  0.25600000  0.03190000  0.10880000  1.0
  O  O274  1  0.55340000  0.60410000  0.63433000  1.0
  O  O275  1  0.10440000  0.25900000  0.86834000  1.0
  O  O276  1  0.25010000  0.12230000  0.86604000  1.0
  O  O277  1  0.56780000  0.81740000  0.41140000  1.0
  O  O278  1  0.83250000  0.72570000  0.42078000  1.0
  O  O279  1  0.13300000  0.29320000  0.10112000  1.0
  O  O280  1  0.73360000  0.56030000  0.62413000  1.0
  O  O281  1  0.54450000  0.75820000  0.62950000  1.0
  O  O282  1  0.24340000  0.30970000  0.95480000  1.0
  O  O283  1  0.23759000  0.13670000  0.13382000  1.0
