# generated using pymatgen
data_FeAg2H8(C2N)8
_symmetry_space_group_name_H-M   'P 1'
_cell_length_a   9.10300000
_cell_length_b   15.45370000
_cell_length_c   15.45370000
_cell_angle_alpha   63.75760000
_cell_angle_beta   78.67640000
_cell_angle_gamma   101.32400000
_symmetry_Int_Tables_number   1
_chemical_formula_structural   FeAg2H8(C2N)8
_chemical_formula_sum   'Fe3 Ag6 H24 C48 N24'
_cell_volume   1810.10676694
_cell_formula_units_Z   3
loop_
 _symmetry_equiv_pos_site_id
 _symmetry_equiv_pos_as_xyz
  1  'x, y, z'
loop_
 _atom_site_type_symbol
 _atom_site_label
 _atom_site_symmetry_multiplicity
 _atom_site_fract_x
 _atom_site_fract_y
 _atom_site_fract_z
 _atom_site_occupancy
  Fe  Fe0  1  0.50000000  0.50000000  0.00000000  1.0
  Fe  Fe1  1  0.50000000  0.00000000  0.50000000  1.0
  Fe  Fe2  1  0.00000000  0.50000000  0.50000000  1.0
  Ag  Ag3  1  0.30437000  0.60874000  0.69563000  1.0
  Ag  Ag4  1  0.00000000  0.69563000  0.69563000  1.0
  Ag  Ag5  1  0.69563000  0.69563000  0.60874000  1.0
  Ag  Ag6  1  0.69563000  0.39126000  0.30437000  1.0
  Ag  Ag7  1  0.00000000  0.30437000  0.30437000  1.0
  Ag  Ag8  1  0.30437000  0.30437000  0.39126000  1.0
  H  H9  1  0.47730000  0.57270000  0.14860000  1.0
  H  H10  1  0.52960000  0.72010000  0.15440000  1.0
  H  H11  1  0.62590000  0.14860000  0.27870000  1.0
  H  H12  1  0.68400000  0.15440000  0.12550000  1.0
  H  H13  1  0.90460000  0.27870000  0.57270000  1.0
  H  H14  1  0.80950000  0.12550000  0.72010000  1.0
  H  H15  1  0.37410000  0.27870000  0.14860000  1.0
  H  H16  1  0.31600000  0.12550000  0.15440000  1.0
  H  H17  1  0.09540000  0.57270000  0.27870000  1.0
  H  H18  1  0.19050000  0.72010000  0.12550000  1.0
  H  H19  1  0.52270000  0.14860000  0.57270000  1.0
  H  H20  1  0.47040000  0.15440000  0.72010000  1.0
  H  H21  1  0.52270000  0.42730000  0.85140000  1.0
  H  H22  1  0.47040000  0.27990000  0.84560000  1.0
  H  H23  1  0.37410000  0.85140000  0.72130000  1.0
  H  H24  1  0.31600000  0.84560000  0.87450000  1.0
  H  H25  1  0.09540000  0.72130000  0.42730000  1.0
  H  H26  1  0.19050000  0.87450000  0.27990000  1.0
  H  H27  1  0.62590000  0.72130000  0.85140000  1.0
  H  H28  1  0.68400000  0.87450000  0.84560000  1.0
  H  H29  1  0.90460000  0.42730000  0.72130000  1.0
  H  H30  1  0.80950000  0.27990000  0.87450000  1.0
  H  H31  1  0.47730000  0.85140000  0.42730000  1.0
  H  H32  1  0.52960000  0.84560000  0.27990000  1.0
  C  C33  1  0.52140000  0.63440000  0.08760000  1.0
  C  C34  1  0.55100000  0.72260000  0.09180000  1.0
  C  C35  1  0.36460000  0.58600000  0.82320000  1.0
  C  C36  1  0.60900000  0.08760000  0.27800000  1.0
  C  C37  1  0.64280000  0.09180000  0.18560000  1.0
  C  C38  1  0.18780000  0.82320000  0.59080000  1.0
  C  C39  1  0.88700000  0.27800000  0.63440000  1.0
  C  C40  1  0.82840000  0.18560000  0.72260000  1.0
  C  C41  1  0.77860000  0.59080000  0.58600000  1.0
  C  C42  1  0.39100000  0.27800000  0.08760000  1.0
  C  C43  1  0.35720000  0.18560000  0.09180000  1.0
  C  C44  1  0.81220000  0.59080000  0.82320000  1.0
  C  C45  1  0.11300000  0.63440000  0.27800000  1.0
  C  C46  1  0.17160000  0.72260000  0.18560000  1.0
  C  C47  1  0.22140000  0.58600000  0.59080000  1.0
  C  C48  1  0.47860000  0.08760000  0.63440000  1.0
  C  C49  1  0.44900000  0.09180000  0.72260000  1.0
  C  C50  1  0.63540000  0.82320000  0.58600000  1.0
  C  C51  1  0.47860000  0.36560000  0.91240000  1.0
  C  C52  1  0.44900000  0.27740000  0.90820000  1.0
  C  C53  1  0.63540000  0.41400000  0.17680000  1.0
  C  C54  1  0.39100000  0.91240000  0.72200000  1.0
  C  C55  1  0.35720000  0.90820000  0.81440000  1.0
  C  C56  1  0.81220000  0.17680000  0.40920000  1.0
  C  C57  1  0.11300000  0.72200000  0.36560000  1.0
  C  C58  1  0.17160000  0.81440000  0.27740000  1.0
  C  C59  1  0.22140000  0.40920000  0.41400000  1.0
  C  C60  1  0.60900000  0.72200000  0.91240000  1.0
  C  C61  1  0.64280000  0.81440000  0.90820000  1.0
  C  C62  1  0.18780000  0.40920000  0.17680000  1.0
  C  C63  1  0.88700000  0.36560000  0.72200000  1.0
  C  C64  1  0.82840000  0.27740000  0.81440000  1.0
  C  C65  1  0.77860000  0.41400000  0.40920000  1.0
  C  C66  1  0.52140000  0.91240000  0.36560000  1.0
  C  C67  1  0.55100000  0.90820000  0.27740000  1.0
  C  C68  1  0.36460000  0.17680000  0.41400000  1.0
  C  C69  1  0.61500000  0.81800000  0.00000000  1.0
  C  C70  1  0.65110000  0.91430000  0.00000000  1.0
  C  C71  1  0.61500000  0.00000000  0.18200000  1.0
  C  C72  1  0.65110000  0.00000000  0.08570000  1.0
  C  C73  1  0.79700000  0.18200000  0.81800000  1.0
  C  C74  1  0.73680000  0.08570000  0.91430000  1.0
  C  C75  1  0.38500000  0.18200000  0.00000000  1.0
  C  C76  1  0.34890000  0.08570000  0.00000000  1.0
  C  C77  1  0.20300000  0.81800000  0.18200000  1.0
  C  C78  1  0.26320000  0.91430000  0.08570000  1.0
  C  C79  1  0.38500000  0.00000000  0.81800000  1.0
  C  C80  1  0.34890000  0.00000000  0.91430000  1.0
  N  N81  1  0.40660000  0.55610000  0.89320000  1.0
  N  N82  1  0.29980000  0.89320000  0.55070000  1.0
  N  N83  1  0.85050000  0.55070000  0.55610000  1.0
  N  N84  1  0.70020000  0.55070000  0.89320000  1.0
  N  N85  1  0.14950000  0.55610000  0.55070000  1.0
  N  N86  1  0.59340000  0.89320000  0.55610000  1.0
  N  N87  1  0.59340000  0.44390000  0.10680000  1.0
  N  N88  1  0.70020000  0.10680000  0.44930000  1.0
  N  N89  1  0.14950000  0.44930000  0.44390000  1.0
  N  N90  1  0.29980000  0.44930000  0.10680000  1.0
  N  N91  1  0.85050000  0.44390000  0.44930000  1.0
  N  N92  1  0.40660000  0.10680000  0.44390000  1.0
  N  N93  1  0.55270000  0.63200000  0.00000000  1.0
  N  N94  1  0.55270000  0.00000000  0.36800000  1.0
  N  N95  1  0.92070000  0.36800000  0.63200000  1.0
  N  N96  1  0.44730000  0.36800000  0.00000000  1.0
  N  N97  1  0.07930000  0.63200000  0.36800000  1.0
  N  N98  1  0.44730000  0.00000000  0.63200000  1.0
  N  N99  1  0.70555000  0.00000000  0.91035000  1.0
  N  N100  1  0.61590000  0.91035000  0.08965000  1.0
  N  N101  1  0.70555000  0.08965000  0.00000000  1.0
  N  N102  1  0.38410000  0.08965000  0.91035000  1.0
  N  N103  1  0.29445000  0.00000000  0.08965000  1.0
  N  N104  1  0.29445000  0.91035000  0.00000000  1.0
