# generated using pymatgen
data_Mn2H3CS(NO)5
_symmetry_space_group_name_H-M   'P 1'
_cell_length_a   6.91280000
_cell_length_b   9.24000000
_cell_length_c   16.09500000
_cell_angle_alpha   90.00000000
_cell_angle_beta   90.00000000
_cell_angle_gamma   90.00000000
_symmetry_Int_Tables_number   1
_chemical_formula_structural   Mn2H3CS(NO)5
_chemical_formula_sum   'Mn8 H12 C4 S4 N20 O20'
_cell_volume   1028.05640784
_cell_formula_units_Z   4
loop_
 _symmetry_equiv_pos_site_id
 _symmetry_equiv_pos_as_xyz
  1  'x, y, z'
loop_
 _atom_site_type_symbol
 _atom_site_label
 _atom_site_symmetry_multiplicity
 _atom_site_fract_x
 _atom_site_fract_y
 _atom_site_fract_z
 _atom_site_occupancy
  Mn  Mn0  1  0.75000000  0.19779000  0.16521000  1.0
  Mn  Mn1  1  0.25000000  0.30221000  0.66521000  1.0
  Mn  Mn2  1  0.25000000  0.80221000  0.83479000  1.0
  Mn  Mn3  1  0.75000000  0.69779000  0.33479000  1.0
  Mn  Mn4  1  0.50000000  0.50000000  0.50000000  1.0
  Mn  Mn5  1  0.50000000  0.00000000  0.00000000  1.0
  Mn  Mn6  1  0.00000000  0.50000000  0.50000000  1.0
  Mn  Mn7  1  0.00000000  0.00000000  0.00000000  1.0
  H  H8  1  0.14230000  0.36670000  0.28790000  1.0
  H  H9  1  0.85770000  0.13330000  0.78790000  1.0
  H  H10  1  0.64230000  0.63330000  0.71210000  1.0
  H  H11  1  0.35770000  0.86670000  0.21210000  1.0
  H  H12  1  0.85770000  0.63330000  0.71210000  1.0
  H  H13  1  0.14230000  0.86670000  0.21210000  1.0
  H  H14  1  0.35770000  0.36670000  0.28790000  1.0
  H  H15  1  0.64230000  0.13330000  0.78790000  1.0
  H  H16  1  0.75000000  0.20500000  0.00900000  1.0
  H  H17  1  0.25000000  0.29500000  0.50900000  1.0
  H  H18  1  0.25000000  0.79500000  0.99100000  1.0
  H  H19  1  0.75000000  0.70500000  0.49100000  1.0
  C  C20  1  0.25000000  0.24700000  0.20040000  1.0
  C  C21  1  0.75000000  0.25300000  0.70040000  1.0
  C  C22  1  0.75000000  0.75300000  0.79960000  1.0
  C  C23  1  0.25000000  0.74700000  0.29960000  1.0
  S  S24  1  0.75000000  0.33681000  0.35526000  1.0
  S  S25  1  0.25000000  0.16319000  0.85526000  1.0
  S  S26  1  0.25000000  0.66319000  0.64474000  1.0
  S  S27  1  0.75000000  0.83681000  0.14474000  1.0
  N  N28  1  0.34340000  0.11870000  0.10019000  1.0
  N  N29  1  0.41100000  0.19880000  0.16298000  1.0
  N  N30  1  0.65660000  0.38130000  0.60019000  1.0
  N  N31  1  0.58900000  0.30120000  0.66298000  1.0
  N  N32  1  0.84340000  0.88130000  0.89981000  1.0
  N  N33  1  0.91100000  0.80120000  0.83702000  1.0
  N  N34  1  0.15660000  0.61870000  0.39981000  1.0
  N  N35  1  0.08900000  0.69880000  0.33702000  1.0
  N  N36  1  0.65660000  0.88130000  0.89981000  1.0
  N  N37  1  0.58900000  0.80120000  0.83702000  1.0
  N  N38  1  0.34340000  0.61870000  0.39981000  1.0
  N  N39  1  0.41100000  0.69880000  0.33702000  1.0
  N  N40  1  0.15660000  0.11870000  0.10019000  1.0
  N  N41  1  0.08900000  0.19880000  0.16298000  1.0
  N  N42  1  0.84340000  0.38130000  0.60019000  1.0
  N  N43  1  0.91100000  0.30120000  0.66298000  1.0
  N  N44  1  0.25000000  0.33720000  0.26720000  1.0
  N  N45  1  0.75000000  0.16280000  0.76720000  1.0
  N  N46  1  0.75000000  0.66280000  0.73280000  1.0
  N  N47  1  0.25000000  0.83720000  0.23280000  1.0
  O  O48  1  0.57660000  0.33230000  0.40792000  1.0
  O  O49  1  0.42340000  0.16770000  0.90792000  1.0
  O  O50  1  0.07660000  0.66770000  0.59208000  1.0
  O  O51  1  0.92340000  0.83230000  0.09208000  1.0
  O  O52  1  0.42340000  0.66770000  0.59208000  1.0
  O  O53  1  0.57660000  0.83230000  0.09208000  1.0
  O  O54  1  0.92340000  0.33230000  0.40792000  1.0
  O  O55  1  0.07660000  0.16770000  0.90792000  1.0
  O  O56  1  0.75000000  0.46920000  0.30460000  1.0
  O  O57  1  0.75000000  0.21070000  0.29920000  1.0
  O  O58  1  0.75000000  0.12620000  0.03498000  1.0
  O  O59  1  0.25000000  0.03080000  0.80460000  1.0
  O  O60  1  0.25000000  0.28930000  0.79920000  1.0
  O  O61  1  0.25000000  0.37380000  0.53498000  1.0
  O  O62  1  0.25000000  0.53080000  0.69540000  1.0
  O  O63  1  0.25000000  0.78930000  0.70080000  1.0
  O  O64  1  0.25000000  0.87380000  0.96502000  1.0
  O  O65  1  0.75000000  0.96920000  0.19540000  1.0
  O  O66  1  0.75000000  0.71070000  0.20080000  1.0
  O  O67  1  0.75000000  0.62620000  0.46502000  1.0
