# generated using pymatgen
data_Ga3FeP4H22C8(N3O8)2
_symmetry_space_group_name_H-M   'P 1'
_cell_length_a   23.69650000
_cell_length_b   23.69650000
_cell_length_c   13.54370000
_cell_angle_alpha   90.00000000
_cell_angle_beta   90.00000000
_cell_angle_gamma   120.00000000
_symmetry_Int_Tables_number   1
_chemical_formula_structural   Ga3FeP4H22C8(N3O8)2
_chemical_formula_sum   'Ga27 Fe9 P36 H198 C72 N54 O144'
_cell_volume   6586.22202580
_cell_formula_units_Z   9
loop_
 _symmetry_equiv_pos_site_id
 _symmetry_equiv_pos_as_xyz
  1  'x, y, z'
loop_
 _atom_site_type_symbol
 _atom_site_label
 _atom_site_symmetry_multiplicity
 _atom_site_fract_x
 _atom_site_fract_y
 _atom_site_fract_z
 _atom_site_occupancy
  Ga  Ga0  1  0.34990000  0.24363000  0.91668000  1.0
  Ga  Ga1  1  0.30544000  0.24025000  0.21440000  1.0
  Ga  Ga2  1  0.01657000  0.57696000  0.25001000  1.0
  Ga  Ga3  1  0.97210000  0.57359000  0.54774000  1.0
  Ga  Ga4  1  0.68323000  0.91030000  0.58335000  1.0
  Ga  Ga5  1  0.63877000  0.90692000  0.88107000  1.0
  Ga  Ga6  1  0.75637000  0.10627000  0.91668000  1.0
  Ga  Ga7  1  0.75975000  0.06518000  0.21440000  1.0
  Ga  Ga8  1  0.42304000  0.43960000  0.25001000  1.0
  Ga  Ga9  1  0.42641000  0.39852000  0.54774000  1.0
  Ga  Ga10  1  0.08970000  0.77294000  0.58335000  1.0
  Ga  Ga11  1  0.09308000  0.73185000  0.88107000  1.0
  Ga  Ga12  1  0.89373000  0.65010000  0.91668000  1.0
  Ga  Ga13  1  0.93482000  0.69456000  0.21440000  1.0
  Ga  Ga14  1  0.56040000  0.98343000  0.25001000  1.0
  Ga  Ga15  1  0.60148000  0.02790000  0.54774000  1.0
  Ga  Ga16  1  0.22706000  0.31677000  0.58335000  1.0
  Ga  Ga17  1  0.26815000  0.36123000  0.88107000  1.0
  Ga  Ga18  1  0.65010000  0.75637000  0.08332000  1.0
  Ga  Ga19  1  0.31677000  0.08970000  0.41665000  1.0
  Ga  Ga20  1  0.98343000  0.42304000  0.74999000  1.0
  Ga  Ga21  1  0.24363000  0.89373000  0.08332000  1.0
  Ga  Ga22  1  0.91030000  0.22706000  0.41665000  1.0
  Ga  Ga23  1  0.57696000  0.56040000  0.74999000  1.0
  Ga  Ga24  1  0.10627000  0.34990000  0.08332000  1.0
  Ga  Ga25  1  0.77294000  0.68323000  0.41665000  1.0
  Ga  Ga26  1  0.43960000  0.01657000  0.74999000  1.0
  Fe  Fe27  1  0.36123000  0.09308000  0.11893000  1.0
  Fe  Fe28  1  0.02790000  0.42641000  0.45226000  1.0
  Fe  Fe29  1  0.69456000  0.75975000  0.78560000  1.0
  Fe  Fe30  1  0.90692000  0.26815000  0.11893000  1.0
  Fe  Fe31  1  0.57359000  0.60148000  0.45226000  1.0
  Fe  Fe32  1  0.24025000  0.93482000  0.78560000  1.0
  Fe  Fe33  1  0.73185000  0.63877000  0.11893000  1.0
  Fe  Fe34  1  0.39852000  0.97210000  0.45226000  1.0
  Fe  Fe35  1  0.06518000  0.30544000  0.78560000  1.0
  P  P36  1  0.41936000  0.23695000  0.12064000  1.0
  P  P37  1  0.32701000  0.98661000  0.27598000  1.0
  P  P38  1  0.08603000  0.57028000  0.45397000  1.0
  P  P39  1  0.99368000  0.31994000  0.60931000  1.0
  P  P40  1  0.75269000  0.90362000  0.78731000  1.0
  P  P41  1  0.66034000  0.65328000  0.94265000  1.0
  P  P42  1  0.76305000  0.18241000  0.12064000  1.0
  P  P43  1  0.01339000  0.34040000  0.27598000  1.0
  P  P44  1  0.42972000  0.51574000  0.45397000  1.0
  P  P45  1  0.68006000  0.67373000  0.60931000  1.0
  P  P46  1  0.09638000  0.84908000  0.78731000  1.0
  P  P47  1  0.34672000  0.00707000  0.94265000  1.0
  P  P48  1  0.81759000  0.58064000  0.12064000  1.0
  P  P49  1  0.65960000  0.67299000  0.27598000  1.0
  P  P50  1  0.48426000  0.91397000  0.45397000  1.0
  P  P51  1  0.32627000  0.00632000  0.60931000  1.0
  P  P52  1  0.15092000  0.24731000  0.78731000  1.0
  P  P53  1  0.99293000  0.33966000  0.94265000  1.0
  P  P54  1  0.58064000  0.76305000  0.87936000  1.0
  P  P55  1  0.67299000  0.01339000  0.72402000  1.0
  P  P56  1  0.24731000  0.09638000  0.21269000  1.0
  P  P57  1  0.33966000  0.34672000  0.05735000  1.0
  P  P58  1  0.91397000  0.42972000  0.54603000  1.0
  P  P59  1  0.00632000  0.68006000  0.39069000  1.0
  P  P60  1  0.23695000  0.81759000  0.87936000  1.0
  P  P61  1  0.98661000  0.65960000  0.72402000  1.0
  P  P62  1  0.90362000  0.15092000  0.21269000  1.0
  P  P63  1  0.65328000  0.99293000  0.05735000  1.0
  P  P64  1  0.57028000  0.48426000  0.54603000  1.0
  P  P65  1  0.31994000  0.32627000  0.39069000  1.0
  P  P66  1  0.18241000  0.41936000  0.87936000  1.0
  P  P67  1  0.34040000  0.32701000  0.72402000  1.0
  P  P68  1  0.84908000  0.75269000  0.21269000  1.0
  P  P69  1  0.00707000  0.66034000  0.05735000  1.0
  P  P70  1  0.51574000  0.08603000  0.54603000  1.0
  P  P71  1  0.67373000  0.99368000  0.39069000  1.0
  H  H72  1  0.47620000  0.29130000  0.92040000  1.0
  H  H73  1  0.45760000  0.31240000  0.82500000  1.0
  H  H74  1  0.22470000  0.20600000  0.90940000  1.0
  H  H75  1  0.24870000  0.18300000  0.01420000  1.0
  H  H76  1  0.45120000  0.19710000  0.89350000  1.0
  H  H77  1  0.38890000  0.13120000  0.76340000  1.0
  H  H78  1  0.37990000  0.20900000  0.72430000  1.0
  H  H79  1  0.26420000  0.14860000  0.75130000  1.0
  H  H80  1  0.24240000  0.07560000  0.78960000  1.0
  H  H81  1  0.17460000  0.09780000  0.87880000  1.0
  H  H82  1  0.22290000  0.09420000  0.97320000  1.0
  H  H83  1  0.14287000  0.62463000  0.25373000  1.0
  H  H84  1  0.12427000  0.64573000  0.15833000  1.0
  H  H85  1  0.89137000  0.53933000  0.24273000  1.0
  H  H86  1  0.91537000  0.51633000  0.34753000  1.0
  H  H87  1  0.11787000  0.53043000  0.22683000  1.0
  H  H88  1  0.05557000  0.46453000  0.09673000  1.0
  H  H89  1  0.04657000  0.54233000  0.05763000  1.0
  H  H90  1  0.93087000  0.48193000  0.08463000  1.0
  H  H91  1  0.90907000  0.40893000  0.12293000  1.0
  H  H92  1  0.84127000  0.43113000  0.21213000  1.0
  H  H93  1  0.88957000  0.42753000  0.30653000  1.0
  H  H94  1  0.80953000  0.95797000  0.58707000  1.0
  H  H95  1  0.79093000  0.97907000  0.49167000  1.0
  H  H96  1  0.55803000  0.87267000  0.57607000  1.0
  H  H97  1  0.58203000  0.84967000  0.68087000  1.0
  H  H98  1  0.78453000  0.86377000  0.56017000  1.0
  H  H99  1  0.72223000  0.79787000  0.43007000  1.0
  H  H100  1  0.71323000  0.87567000  0.39097000  1.0
  H  H101  1  0.59753000  0.81527000  0.41797000  1.0
  H  H102  1  0.57573000  0.74227000  0.45627000  1.0
  H  H103  1  0.50793000  0.76447000  0.54547000  1.0
  H  H104  1  0.55623000  0.76087000  0.63987000  1.0
  H  H105  1  0.70870000  0.18490000  0.92040000  1.0
  H  H106  1  0.68760000  0.14520000  0.82500000  1.0
  H  H107  1  0.79400000  0.01870000  0.90940000  1.0
  H  H108  1  0.81700000  0.06570000  0.01420000  1.0
  H  H109  1  0.80290000  0.25410000  0.89350000  1.0
  H  H110  1  0.86880000  0.25770000  0.76340000  1.0
  H  H111  1  0.79100000  0.17090000  0.72430000  1.0
  H  H112  1  0.85140000  0.11560000  0.75130000  1.0
  H  H113  1  0.92440000  0.16680000  0.78960000  1.0
  H  H114  1  0.90220000  0.07680000  0.87880000  1.0
  H  H115  1  0.90580000  0.12870000  0.97320000  1.0
  H  H116  1  0.37537000  0.51823000  0.25373000  1.0
  H  H117  1  0.35427000  0.47853000  0.15833000  1.0
  H  H118  1  0.46067000  0.35203000  0.24273000  1.0
  H  H119  1  0.48367000  0.39903000  0.34753000  1.0
  H  H120  1  0.46957000  0.58743000  0.22683000  1.0
  H  H121  1  0.53547000  0.59103000  0.09673000  1.0
  H  H122  1  0.45767000  0.50423000  0.05763000  1.0
  H  H123  1  0.51807000  0.44893000  0.08463000  1.0
  H  H124  1  0.59107000  0.50013000  0.12293000  1.0
  H  H125  1  0.56887000  0.41013000  0.21213000  1.0
  H  H126  1  0.57247000  0.46203000  0.30653000  1.0
  H  H127  1  0.04203000  0.85157000  0.58707000  1.0
  H  H128  1  0.02093000  0.81187000  0.49167000  1.0
  H  H129  1  0.12733000  0.68537000  0.57607000  1.0
  H  H130  1  0.15033000  0.73237000  0.68087000  1.0
  H  H131  1  0.13623000  0.92077000  0.56017000  1.0
  H  H132  1  0.20213000  0.92437000  0.43007000  1.0
  H  H133  1  0.12433000  0.83757000  0.39097000  1.0
  H  H134  1  0.18473000  0.78227000  0.41797000  1.0
  H  H135  1  0.25773000  0.83347000  0.45627000  1.0
  H  H136  1  0.23553000  0.74347000  0.54547000  1.0
  H  H137  1  0.23913000  0.79537000  0.63987000  1.0
  H  H138  1  0.81510000  0.52380000  0.92040000  1.0
  H  H139  1  0.85480000  0.54240000  0.82500000  1.0
  H  H140  1  0.98130000  0.77530000  0.90940000  1.0
  H  H141  1  0.93430000  0.75130000  0.01420000  1.0
  H  H142  1  0.74590000  0.54880000  0.89350000  1.0
  H  H143  1  0.74230000  0.61110000  0.76340000  1.0
  H  H144  1  0.82910000  0.62010000  0.72430000  1.0
  H  H145  1  0.88440000  0.73580000  0.75130000  1.0
  H  H146  1  0.83320000  0.75760000  0.78960000  1.0
  H  H147  1  0.92320000  0.82540000  0.87880000  1.0
  H  H148  1  0.87130000  0.77710000  0.97320000  1.0
  H  H149  1  0.48177000  0.85713000  0.25373000  1.0
  H  H150  1  0.52147000  0.87573000  0.15833000  1.0
  H  H151  1  0.64797000  0.10863000  0.24273000  1.0
  H  H152  1  0.60097000  0.08463000  0.34753000  1.0
  H  H153  1  0.41257000  0.88213000  0.22683000  1.0
  H  H154  1  0.40897000  0.94443000  0.09673000  1.0
  H  H155  1  0.49577000  0.95343000  0.05763000  1.0
  H  H156  1  0.55107000  0.06913000  0.08463000  1.0
  H  H157  1  0.49987000  0.09093000  0.12293000  1.0
  H  H158  1  0.58987000  0.15873000  0.21213000  1.0
  H  H159  1  0.53797000  0.11043000  0.30653000  1.0
  H  H160  1  0.14843000  0.19047000  0.58707000  1.0
  H  H161  1  0.18813000  0.20907000  0.49167000  1.0
  H  H162  1  0.31463000  0.44197000  0.57607000  1.0
  H  H163  1  0.26763000  0.41797000  0.68087000  1.0
  H  H164  1  0.07923000  0.21547000  0.56017000  1.0
  H  H165  1  0.07563000  0.27777000  0.43007000  1.0
  H  H166  1  0.16243000  0.28677000  0.39097000  1.0
  H  H167  1  0.21773000  0.40247000  0.41797000  1.0
  H  H168  1  0.16653000  0.42427000  0.45627000  1.0
  H  H169  1  0.25653000  0.49207000  0.54547000  1.0
  H  H170  1  0.20463000  0.44377000  0.63987000  1.0
  H  H171  1  0.52380000  0.70870000  0.07960000  1.0
  H  H172  1  0.54240000  0.68760000  0.17500000  1.0
  H  H173  1  0.77530000  0.79400000  0.09060000  1.0
  H  H174  1  0.75130000  0.81700000  0.98580000  1.0
  H  H175  1  0.54880000  0.80290000  0.10650000  1.0
  H  H176  1  0.61110000  0.86880000  0.23660000  1.0
  H  H177  1  0.62010000  0.79100000  0.27570000  1.0
  H  H178  1  0.73580000  0.85140000  0.24870000  1.0
  H  H179  1  0.75760000  0.92440000  0.21040000  1.0
  H  H180  1  0.82540000  0.90220000  0.12120000  1.0
  H  H181  1  0.77710000  0.90580000  0.02680000  1.0
  H  H182  1  0.19047000  0.04203000  0.41293000  1.0
  H  H183  1  0.20907000  0.02093000  0.50833000  1.0
  H  H184  1  0.44197000  0.12733000  0.42393000  1.0
  H  H185  1  0.41797000  0.15033000  0.31913000  1.0
  H  H186  1  0.21547000  0.13623000  0.43983000  1.0
  H  H187  1  0.27777000  0.20213000  0.56993000  1.0
  H  H188  1  0.28677000  0.12433000  0.60903000  1.0
  H  H189  1  0.40247000  0.18473000  0.58203000  1.0
  H  H190  1  0.42427000  0.25773000  0.54373000  1.0
  H  H191  1  0.49207000  0.23553000  0.45453000  1.0
  H  H192  1  0.44377000  0.23913000  0.36013000  1.0
  H  H193  1  0.85713000  0.37537000  0.74627000  1.0
  H  H194  1  0.87573000  0.35427000  0.84167000  1.0
  H  H195  1  0.10863000  0.46067000  0.75727000  1.0
  H  H196  1  0.08463000  0.48367000  0.65247000  1.0
  H  H197  1  0.88213000  0.46957000  0.77317000  1.0
  H  H198  1  0.94443000  0.53547000  0.90327000  1.0
  H  H199  1  0.95343000  0.45767000  0.94237000  1.0
  H  H200  1  0.06913000  0.51807000  0.91537000  1.0
  H  H201  1  0.09093000  0.59107000  0.87707000  1.0
  H  H202  1  0.15873000  0.56887000  0.78787000  1.0
  H  H203  1  0.11043000  0.57247000  0.69347000  1.0
  H  H204  1  0.29130000  0.81510000  0.07960000  1.0
  H  H205  1  0.31240000  0.85480000  0.17500000  1.0
  H  H206  1  0.20600000  0.98130000  0.09060000  1.0
  H  H207  1  0.18300000  0.93430000  0.98580000  1.0
  H  H208  1  0.19710000  0.74590000  0.10650000  1.0
  H  H209  1  0.13120000  0.74230000  0.23660000  1.0
  H  H210  1  0.20900000  0.82910000  0.27570000  1.0
  H  H211  1  0.14860000  0.88440000  0.24870000  1.0
  H  H212  1  0.07560000  0.83320000  0.21040000  1.0
  H  H213  1  0.09780000  0.92320000  0.12120000  1.0
  H  H214  1  0.09420000  0.87130000  0.02680000  1.0
  H  H215  1  0.95797000  0.14843000  0.41293000  1.0
  H  H216  1  0.97907000  0.18813000  0.50833000  1.0
  H  H217  1  0.87267000  0.31463000  0.42393000  1.0
  H  H218  1  0.84967000  0.26763000  0.31913000  1.0
  H  H219  1  0.86377000  0.07923000  0.43983000  1.0
  H  H220  1  0.79787000  0.07563000  0.56993000  1.0
  H  H221  1  0.87567000  0.16243000  0.60903000  1.0
  H  H222  1  0.81527000  0.21773000  0.58203000  1.0
  H  H223  1  0.74227000  0.16653000  0.54373000  1.0
  H  H224  1  0.76447000  0.25653000  0.45453000  1.0
  H  H225  1  0.76087000  0.20463000  0.36013000  1.0
  H  H226  1  0.62463000  0.48177000  0.74627000  1.0
  H  H227  1  0.64573000  0.52147000  0.84167000  1.0
  H  H228  1  0.53933000  0.64797000  0.75727000  1.0
  H  H229  1  0.51633000  0.60097000  0.65247000  1.0
  H  H230  1  0.53043000  0.41257000  0.77317000  1.0
  H  H231  1  0.46453000  0.40897000  0.90327000  1.0
  H  H232  1  0.54233000  0.49577000  0.94237000  1.0
  H  H233  1  0.48193000  0.55107000  0.91537000  1.0
  H  H234  1  0.40893000  0.49987000  0.87707000  1.0
  H  H235  1  0.43113000  0.58987000  0.78787000  1.0
  H  H236  1  0.42753000  0.53797000  0.69347000  1.0
  H  H237  1  0.18490000  0.47620000  0.07960000  1.0
  H  H238  1  0.14520000  0.45760000  0.17500000  1.0
  H  H239  1  0.01870000  0.22470000  0.09060000  1.0
  H  H240  1  0.06570000  0.24870000  0.98580000  1.0
  H  H241  1  0.25410000  0.45120000  0.10650000  1.0
  H  H242  1  0.25770000  0.38890000  0.23660000  1.0
  H  H243  1  0.17090000  0.37990000  0.27570000  1.0
  H  H244  1  0.11560000  0.26420000  0.24870000  1.0
  H  H245  1  0.16680000  0.24240000  0.21040000  1.0
  H  H246  1  0.07680000  0.17460000  0.12120000  1.0
  H  H247  1  0.12870000  0.22290000  0.02680000  1.0
  H  H248  1  0.85157000  0.80953000  0.41293000  1.0
  H  H249  1  0.81187000  0.79093000  0.50833000  1.0
  H  H250  1  0.68537000  0.55803000  0.42393000  1.0
  H  H251  1  0.73237000  0.58203000  0.31913000  1.0
  H  H252  1  0.92077000  0.78453000  0.43983000  1.0
  H  H253  1  0.92437000  0.72223000  0.56993000  1.0
  H  H254  1  0.83757000  0.71323000  0.60903000  1.0
  H  H255  1  0.78227000  0.59753000  0.58203000  1.0
  H  H256  1  0.83347000  0.57573000  0.54373000  1.0
  H  H257  1  0.74347000  0.50793000  0.45453000  1.0
  H  H258  1  0.79537000  0.55623000  0.36013000  1.0
  H  H259  1  0.51823000  0.14287000  0.74627000  1.0
  H  H260  1  0.47853000  0.12427000  0.84167000  1.0
  H  H261  1  0.35203000  0.89137000  0.75727000  1.0
  H  H262  1  0.39903000  0.91537000  0.65247000  1.0
  H  H263  1  0.58743000  0.11787000  0.77317000  1.0
  H  H264  1  0.59103000  0.05557000  0.90327000  1.0
  H  H265  1  0.50423000  0.04657000  0.94237000  1.0
  H  H266  1  0.44893000  0.93087000  0.91537000  1.0
  H  H267  1  0.50013000  0.90907000  0.87707000  1.0
  H  H268  1  0.41013000  0.84127000  0.78787000  1.0
  H  H269  1  0.46203000  0.88957000  0.69347000  1.0
  C  C270  1  0.44830000  0.22050000  0.82800000  1.0
  C  C271  1  0.38520000  0.17440000  0.77950000  1.0
  C  C272  1  0.26610000  0.12360000  0.81860000  1.0
  C  C273  1  0.22470000  0.12080000  0.90490000  1.0
  C  C274  1  0.11497000  0.55383000  0.16133000  1.0
  C  C275  1  0.05187000  0.50773000  0.11283000  1.0
  C  C276  1  0.93277000  0.45693000  0.15193000  1.0
  C  C277  1  0.89137000  0.45413000  0.23823000  1.0
  C  C278  1  0.78163000  0.88717000  0.49467000  1.0
  C  C279  1  0.71853000  0.84107000  0.44617000  1.0
  C  C280  1  0.59943000  0.79027000  0.48527000  1.0
  C  C281  1  0.55803000  0.78747000  0.57157000  1.0
  C  C282  1  0.77950000  0.22780000  0.82800000  1.0
  C  C283  1  0.82560000  0.21080000  0.77950000  1.0
  C  C284  1  0.87640000  0.14250000  0.81860000  1.0
  C  C285  1  0.87920000  0.10390000  0.90490000  1.0
  C  C286  1  0.44617000  0.56113000  0.16133000  1.0
  C  C287  1  0.49227000  0.54413000  0.11283000  1.0
  C  C288  1  0.54307000  0.47583000  0.15193000  1.0
  C  C289  1  0.54587000  0.43723000  0.23823000  1.0
  C  C290  1  0.11283000  0.89447000  0.49467000  1.0
  C  C291  1  0.15893000  0.87747000  0.44617000  1.0
  C  C292  1  0.20973000  0.80917000  0.48527000  1.0
  C  C293  1  0.21253000  0.77057000  0.57157000  1.0
  C  C294  1  0.77220000  0.55170000  0.82800000  1.0
  C  C295  1  0.78920000  0.61480000  0.77950000  1.0
  C  C296  1  0.85750000  0.73390000  0.81860000  1.0
  C  C297  1  0.89610000  0.77530000  0.90490000  1.0
  C  C298  1  0.43887000  0.88503000  0.16133000  1.0
  C  C299  1  0.45587000  0.94813000  0.11283000  1.0
  C  C300  1  0.52417000  0.06723000  0.15193000  1.0
  C  C301  1  0.56277000  0.10863000  0.23823000  1.0
  C  C302  1  0.10553000  0.21837000  0.49467000  1.0
  C  C303  1  0.12253000  0.28147000  0.44617000  1.0
  C  C304  1  0.19083000  0.40057000  0.48527000  1.0
  C  C305  1  0.22943000  0.44197000  0.57157000  1.0
  C  C306  1  0.55170000  0.77950000  0.17200000  1.0
  C  C307  1  0.61480000  0.82560000  0.22050000  1.0
  C  C308  1  0.73390000  0.87640000  0.18140000  1.0
  C  C309  1  0.77530000  0.87920000  0.09510000  1.0
  C  C310  1  0.21837000  0.11283000  0.50533000  1.0
  C  C311  1  0.28147000  0.15893000  0.55383000  1.0
  C  C312  1  0.40057000  0.20973000  0.51473000  1.0
  C  C313  1  0.44197000  0.21253000  0.42843000  1.0
  C  C314  1  0.88503000  0.44617000  0.83867000  1.0
  C  C315  1  0.94813000  0.49227000  0.88717000  1.0
  C  C316  1  0.06723000  0.54307000  0.84807000  1.0
  C  C317  1  0.10863000  0.54587000  0.76177000  1.0
  C  C318  1  0.22050000  0.77220000  0.17200000  1.0
  C  C319  1  0.17440000  0.78920000  0.22050000  1.0
  C  C320  1  0.12360000  0.85750000  0.18140000  1.0
  C  C321  1  0.12080000  0.89610000  0.09510000  1.0
  C  C322  1  0.88717000  0.10553000  0.50533000  1.0
  C  C323  1  0.84107000  0.12253000  0.55383000  1.0
  C  C324  1  0.79027000  0.19083000  0.51473000  1.0
  C  C325  1  0.78747000  0.22943000  0.42843000  1.0
  C  C326  1  0.55383000  0.43887000  0.83867000  1.0
  C  C327  1  0.50773000  0.45587000  0.88717000  1.0
  C  C328  1  0.45693000  0.52417000  0.84807000  1.0
  C  C329  1  0.45413000  0.56277000  0.76177000  1.0
  C  C330  1  0.22780000  0.44830000  0.17200000  1.0
  C  C331  1  0.21080000  0.38520000  0.22050000  1.0
  C  C332  1  0.14250000  0.26610000  0.18140000  1.0
  C  C333  1  0.10390000  0.22470000  0.09510000  1.0
  C  C334  1  0.89447000  0.78163000  0.50533000  1.0
  C  C335  1  0.87747000  0.71853000  0.55383000  1.0
  C  C336  1  0.80917000  0.59943000  0.51473000  1.0
  C  C337  1  0.77057000  0.55803000  0.42843000  1.0
  C  C338  1  0.56113000  0.11497000  0.83867000  1.0
  C  C339  1  0.54413000  0.05187000  0.88717000  1.0
  C  C340  1  0.47583000  0.93277000  0.84807000  1.0
  C  C341  1  0.43723000  0.89137000  0.76177000  1.0
  N  N342  1  0.44440000  0.27770000  0.86940000  1.0
  N  N343  1  0.33350000  0.15680000  0.85270000  1.0
  N  N344  1  0.25140000  0.18880000  0.94260000  1.0
  N  N345  1  0.11107000  0.61103000  0.20273000  1.0
  N  N346  1  0.00017000  0.49013000  0.18603000  1.0
  N  N347  1  0.91807000  0.52213000  0.27593000  1.0
  N  N348  1  0.77773000  0.94437000  0.53607000  1.0
  N  N349  1  0.66683000  0.82347000  0.51937000  1.0
  N  N350  1  0.58473000  0.85547000  0.60927000  1.0
  N  N351  1  0.72230000  0.16670000  0.86940000  1.0
  N  N352  1  0.84320000  0.17670000  0.85270000  1.0
  N  N353  1  0.81120000  0.06260000  0.94260000  1.0
  N  N354  1  0.38897000  0.50003000  0.20273000  1.0
  N  N355  1  0.50987000  0.51003000  0.18603000  1.0
  N  N356  1  0.47787000  0.39593000  0.27593000  1.0
  N  N357  1  0.05563000  0.83337000  0.53607000  1.0
  N  N358  1  0.17653000  0.84337000  0.51937000  1.0
  N  N359  1  0.14453000  0.72927000  0.60927000  1.0
  N  N360  1  0.83330000  0.55560000  0.86940000  1.0
  N  N361  1  0.82330000  0.66650000  0.85270000  1.0
  N  N362  1  0.93740000  0.74860000  0.94260000  1.0
  N  N363  1  0.49997000  0.88893000  0.20273000  1.0
  N  N364  1  0.48997000  0.99983000  0.18603000  1.0
  N  N365  1  0.60407000  0.08193000  0.27593000  1.0
  N  N366  1  0.16663000  0.22227000  0.53607000  1.0
  N  N367  1  0.15663000  0.33317000  0.51937000  1.0
  N  N368  1  0.27073000  0.41527000  0.60927000  1.0
  N  N369  1  0.55560000  0.72230000  0.13060000  1.0
  N  N370  1  0.66650000  0.84320000  0.14730000  1.0
  N  N371  1  0.74860000  0.81120000  0.05740000  1.0
  N  N372  1  0.22227000  0.05563000  0.46393000  1.0
  N  N373  1  0.33317000  0.17653000  0.48063000  1.0
  N  N374  1  0.41527000  0.14453000  0.39073000  1.0
  N  N375  1  0.88893000  0.38897000  0.79727000  1.0
  N  N376  1  0.99983000  0.50987000  0.81397000  1.0
  N  N377  1  0.08193000  0.47787000  0.72407000  1.0
  N  N378  1  0.27770000  0.83330000  0.13060000  1.0
  N  N379  1  0.15680000  0.82330000  0.14730000  1.0
  N  N380  1  0.18880000  0.93740000  0.05740000  1.0
  N  N381  1  0.94437000  0.16663000  0.46393000  1.0
  N  N382  1  0.82347000  0.15663000  0.48063000  1.0
  N  N383  1  0.85547000  0.27073000  0.39073000  1.0
  N  N384  1  0.61103000  0.49997000  0.79727000  1.0
  N  N385  1  0.49013000  0.48997000  0.81397000  1.0
  N  N386  1  0.52213000  0.60407000  0.72407000  1.0
  N  N387  1  0.16670000  0.44440000  0.13060000  1.0
  N  N388  1  0.17670000  0.33350000  0.14730000  1.0
  N  N389  1  0.06260000  0.25140000  0.05740000  1.0
  N  N390  1  0.83337000  0.77773000  0.46393000  1.0
  N  N391  1  0.84337000  0.66683000  0.48063000  1.0
  N  N392  1  0.72927000  0.58473000  0.39073000  1.0
  N  N393  1  0.50003000  0.11107000  0.79727000  1.0
  N  N394  1  0.51003000  0.00017000  0.81397000  1.0
  N  N395  1  0.39593000  0.91807000  0.72407000  1.0
  O  O396  1  0.36890000  0.21180000  0.03800000  1.0
  O  O397  1  0.42340000  0.17680000  0.15680000  1.0
  O  O398  1  0.39160000  0.25980000  0.20710000  1.0
  O  O399  1  0.48470000  0.29080000  0.09140000  1.0
  O  O400  1  0.37620000  0.04500000  0.21270000  1.0
  O  O401  1  0.36610000  0.95710000  0.32280000  1.0
  O  O402  1  0.27160000  0.93610000  0.21560000  1.0
  O  O403  1  0.30030000  0.00970000  0.35930000  1.0
  O  O404  1  0.03557000  0.54513000  0.37133000  1.0
  O  O405  1  0.09007000  0.51013000  0.49013000  1.0
  O  O406  1  0.05827000  0.59313000  0.54043000  1.0
  O  O407  1  0.15137000  0.62413000  0.42473000  1.0
  O  O408  1  0.04287000  0.37833000  0.54603000  1.0
  O  O409  1  0.03277000  0.29043000  0.65613000  1.0
  O  O410  1  0.93827000  0.26943000  0.54893000  1.0
  O  O411  1  0.96697000  0.34303000  0.69263000  1.0
  O  O412  1  0.70223000  0.87847000  0.70467000  1.0
  O  O413  1  0.75673000  0.84347000  0.82347000  1.0
  O  O414  1  0.72493000  0.92647000  0.87377000  1.0
  O  O415  1  0.81803000  0.95747000  0.75807000  1.0
  O  O416  1  0.70953000  0.71167000  0.87937000  1.0
  O  O417  1  0.69943000  0.62377000  0.98947000  1.0
  O  O418  1  0.60493000  0.60277000  0.88227000  1.0
  O  O419  1  0.63363000  0.67637000  0.02597000  1.0
  O  O420  1  0.78820000  0.15710000  0.03800000  1.0
  O  O421  1  0.82320000  0.24660000  0.15680000  1.0
  O  O422  1  0.74020000  0.13180000  0.20710000  1.0
  O  O423  1  0.70920000  0.19390000  0.09140000  1.0
  O  O424  1  0.95500000  0.33120000  0.21270000  1.0
  O  O425  1  0.04290000  0.40900000  0.32280000  1.0
  O  O426  1  0.06390000  0.33550000  0.21560000  1.0
  O  O427  1  0.99030000  0.29060000  0.35930000  1.0
  O  O428  1  0.45487000  0.49043000  0.37133000  1.0
  O  O429  1  0.48987000  0.57993000  0.49013000  1.0
  O  O430  1  0.40687000  0.46513000  0.54043000  1.0
  O  O431  1  0.37587000  0.52723000  0.42473000  1.0
  O  O432  1  0.62167000  0.66453000  0.54603000  1.0
  O  O433  1  0.70957000  0.74233000  0.65613000  1.0
  O  O434  1  0.73057000  0.66883000  0.54893000  1.0
  O  O435  1  0.65697000  0.62393000  0.69263000  1.0
  O  O436  1  0.12153000  0.82377000  0.70467000  1.0
  O  O437  1  0.15653000  0.91327000  0.82347000  1.0
  O  O438  1  0.07353000  0.79847000  0.87377000  1.0
  O  O439  1  0.04253000  0.86057000  0.75807000  1.0
  O  O440  1  0.28833000  0.99787000  0.87937000  1.0
  O  O441  1  0.37623000  0.07567000  0.98947000  1.0
  O  O442  1  0.39723000  0.00217000  0.88227000  1.0
  O  O443  1  0.32363000  0.95727000  0.02597000  1.0
  O  O444  1  0.84290000  0.63110000  0.03800000  1.0
  O  O445  1  0.75340000  0.57660000  0.15680000  1.0
  O  O446  1  0.86820000  0.60840000  0.20710000  1.0
  O  O447  1  0.80610000  0.51530000  0.09140000  1.0
  O  O448  1  0.66880000  0.62380000  0.21270000  1.0
  O  O449  1  0.59100000  0.63390000  0.32280000  1.0
  O  O450  1  0.66450000  0.72840000  0.21560000  1.0
  O  O451  1  0.70940000  0.69970000  0.35930000  1.0
  O  O452  1  0.50957000  0.96443000  0.37133000  1.0
  O  O453  1  0.42007000  0.90993000  0.49013000  1.0
  O  O454  1  0.53487000  0.94173000  0.54043000  1.0
  O  O455  1  0.47277000  0.84863000  0.42473000  1.0
  O  O456  1  0.33547000  0.95713000  0.54603000  1.0
  O  O457  1  0.25767000  0.96723000  0.65613000  1.0
  O  O458  1  0.33117000  0.06173000  0.54893000  1.0
  O  O459  1  0.37607000  0.03303000  0.69263000  1.0
  O  O460  1  0.17623000  0.29777000  0.70467000  1.0
  O  O461  1  0.08673000  0.24327000  0.82347000  1.0
  O  O462  1  0.20153000  0.27507000  0.87377000  1.0
  O  O463  1  0.13943000  0.18197000  0.75807000  1.0
  O  O464  1  0.00213000  0.29047000  0.87937000  1.0
  O  O465  1  0.92433000  0.30057000  0.98947000  1.0
  O  O466  1  0.99783000  0.39507000  0.88227000  1.0
  O  O467  1  0.04273000  0.36637000  0.02597000  1.0
  O  O468  1  0.63110000  0.78820000  0.96200000  1.0
  O  O469  1  0.57660000  0.82320000  0.84320000  1.0
  O  O470  1  0.60840000  0.74020000  0.79290000  1.0
  O  O471  1  0.51530000  0.70920000  0.90860000  1.0
  O  O472  1  0.62380000  0.95500000  0.78730000  1.0
  O  O473  1  0.63390000  0.04290000  0.67720000  1.0
  O  O474  1  0.72840000  0.06390000  0.78440000  1.0
  O  O475  1  0.69970000  0.99030000  0.64070000  1.0
  O  O476  1  0.29777000  0.12153000  0.29533000  1.0
  O  O477  1  0.24327000  0.15653000  0.17653000  1.0
  O  O478  1  0.27507000  0.07353000  0.12623000  1.0
  O  O479  1  0.18197000  0.04253000  0.24193000  1.0
  O  O480  1  0.29047000  0.28833000  0.12063000  1.0
  O  O481  1  0.30057000  0.37623000  0.01053000  1.0
  O  O482  1  0.39507000  0.39723000  0.11773000  1.0
  O  O483  1  0.36637000  0.32363000  0.97403000  1.0
  O  O484  1  0.96443000  0.45487000  0.62867000  1.0
  O  O485  1  0.90993000  0.48987000  0.50987000  1.0
  O  O486  1  0.94173000  0.40687000  0.45957000  1.0
  O  O487  1  0.84863000  0.37587000  0.57527000  1.0
  O  O488  1  0.95713000  0.62167000  0.45397000  1.0
  O  O489  1  0.96723000  0.70957000  0.34387000  1.0
  O  O490  1  0.06173000  0.73057000  0.45107000  1.0
  O  O491  1  0.03303000  0.65697000  0.30737000  1.0
  O  O492  1  0.21180000  0.84290000  0.96200000  1.0
  O  O493  1  0.17680000  0.75340000  0.84320000  1.0
  O  O494  1  0.25980000  0.86820000  0.79290000  1.0
  O  O495  1  0.29080000  0.80610000  0.90860000  1.0
  O  O496  1  0.04500000  0.66880000  0.78730000  1.0
  O  O497  1  0.95710000  0.59100000  0.67720000  1.0
  O  O498  1  0.93610000  0.66450000  0.78440000  1.0
  O  O499  1  0.00970000  0.70940000  0.64070000  1.0
  O  O500  1  0.87847000  0.17623000  0.29533000  1.0
  O  O501  1  0.84347000  0.08673000  0.17653000  1.0
  O  O502  1  0.92647000  0.20153000  0.12623000  1.0
  O  O503  1  0.95747000  0.13943000  0.24193000  1.0
  O  O504  1  0.71167000  0.00213000  0.12063000  1.0
  O  O505  1  0.62377000  0.92433000  0.01053000  1.0
  O  O506  1  0.60277000  0.99783000  0.11773000  1.0
  O  O507  1  0.67637000  0.04273000  0.97403000  1.0
  O  O508  1  0.54513000  0.50957000  0.62867000  1.0
  O  O509  1  0.51013000  0.42007000  0.50987000  1.0
  O  O510  1  0.59313000  0.53487000  0.45957000  1.0
  O  O511  1  0.62413000  0.47277000  0.57527000  1.0
  O  O512  1  0.37833000  0.33547000  0.45397000  1.0
  O  O513  1  0.29043000  0.25767000  0.34387000  1.0
  O  O514  1  0.26943000  0.33117000  0.45107000  1.0
  O  O515  1  0.34303000  0.37607000  0.30737000  1.0
  O  O516  1  0.15710000  0.36890000  0.96200000  1.0
  O  O517  1  0.24660000  0.42340000  0.84320000  1.0
  O  O518  1  0.13180000  0.39160000  0.79290000  1.0
  O  O519  1  0.19390000  0.48470000  0.90860000  1.0
  O  O520  1  0.33120000  0.37620000  0.78730000  1.0
  O  O521  1  0.40900000  0.36610000  0.67720000  1.0
  O  O522  1  0.33550000  0.27160000  0.78440000  1.0
  O  O523  1  0.29060000  0.30030000  0.64070000  1.0
  O  O524  1  0.82377000  0.70223000  0.29533000  1.0
  O  O525  1  0.91327000  0.75673000  0.17653000  1.0
  O  O526  1  0.79847000  0.72493000  0.12623000  1.0
  O  O527  1  0.86057000  0.81803000  0.24193000  1.0
  O  O528  1  0.99787000  0.70953000  0.12063000  1.0
  O  O529  1  0.07567000  0.69943000  0.01053000  1.0
  O  O530  1  0.00217000  0.60493000  0.11773000  1.0
  O  O531  1  0.95727000  0.63363000  0.97403000  1.0
  O  O532  1  0.49043000  0.03557000  0.62867000  1.0
  O  O533  1  0.57993000  0.09007000  0.50987000  1.0
  O  O534  1  0.46513000  0.05827000  0.45957000  1.0
  O  O535  1  0.52723000  0.15137000  0.57527000  1.0
  O  O536  1  0.66453000  0.04287000  0.45397000  1.0
  O  O537  1  0.74233000  0.03277000  0.34387000  1.0
  O  O538  1  0.66883000  0.93827000  0.45107000  1.0
  O  O539  1  0.62393000  0.96697000  0.30737000  1.0
