# generated using pymatgen
data_Zn3H20C29N3O8
_symmetry_space_group_name_H-M   'P 1'
_cell_length_a   20.50400000
_cell_length_b   9.57760000
_cell_length_c   19.44400000
_cell_angle_alpha   90.00000000
_cell_angle_beta   103.73500000
_cell_angle_gamma   90.00000000
_symmetry_Int_Tables_number   1
_chemical_formula_structural   Zn3H20C29N3O8
_chemical_formula_sum   'Zn12 H80 C116 N12 O32'
_cell_volume   3709.20558962
_cell_formula_units_Z   4
loop_
 _symmetry_equiv_pos_site_id
 _symmetry_equiv_pos_as_xyz
  1  'x, y, z'
loop_
 _atom_site_type_symbol
 _atom_site_label
 _atom_site_symmetry_multiplicity
 _atom_site_fract_x
 _atom_site_fract_y
 _atom_site_fract_z
 _atom_site_occupancy
  Zn  Zn0  1  0.59911000  0.91573000  0.78959000  1.0
  Zn  Zn1  1  0.71863000  0.86299000  0.92754000  1.0
  Zn  Zn2  1  0.75696000  0.98084000  0.93870000  1.0
  Zn  Zn3  1  0.40089000  0.41573000  0.71041000  1.0
  Zn  Zn4  1  0.28137000  0.36299000  0.57246000  1.0
  Zn  Zn5  1  0.24304000  0.48084000  0.56130000  1.0
  Zn  Zn6  1  0.40089000  0.08427000  0.21041000  1.0
  Zn  Zn7  1  0.28137000  0.13701000  0.07246000  1.0
  Zn  Zn8  1  0.24304000  0.01916000  0.06130000  1.0
  Zn  Zn9  1  0.59911000  0.58427000  0.28959000  1.0
  Zn  Zn10  1  0.71863000  0.63701000  0.42754000  1.0
  Zn  Zn11  1  0.75696000  0.51916000  0.43870000  1.0
  H  H12  1  0.51830000  0.18930000  0.56980000  1.0
  H  H13  1  0.56000000  0.14900000  0.68760000  1.0
  H  H14  1  0.50860000  0.77750000  0.53880000  1.0
  H  H15  1  0.55370000  0.74840000  0.65580000  1.0
  H  H16  1  0.71430000  0.73690000  0.66630000  1.0
  H  H17  1  0.89410000  0.67720000  0.62720000  1.0
  H  H18  1  0.87900000  0.79510000  0.82110000  1.0
  H  H19  1  0.38740000  0.61870000  0.18600000  1.0
  H  H20  1  0.31380000  0.76580000  0.99050000  1.0
  H  H21  1  0.34820000  0.35680000  0.02030000  1.0
  H  H22  1  0.31360000  0.44680000  0.90520000  1.0
  H  H23  1  0.98960000  0.68260000  0.72210000  1.0
  H  H24  1  0.29680000  0.59870000  0.82260000  1.0
  H  H25  1  0.31450000  0.71630000  0.87980000  1.0
  H  H26  1  0.98640000  0.72340000  0.85160000  1.0
  H  H27  1  0.99540000  0.86910000  0.81770000  1.0
  H  H28  1  0.17980000  0.48020000  0.86530000  1.0
  H  H29  1  0.22580000  0.87380000  0.83350000  1.0
  H  H30  1  0.06620000  0.53100000  0.83220000  1.0
  H  H31  1  0.11430000  0.93060000  0.81770000  1.0
  H  H32  1  0.48170000  0.68930000  0.93020000  1.0
  H  H33  1  0.44000000  0.64900000  0.81240000  1.0
  H  H34  1  0.49140000  0.27750000  0.96120000  1.0
  H  H35  1  0.44630000  0.24840000  0.84420000  1.0
  H  H36  1  0.28570000  0.23690000  0.83370000  1.0
  H  H37  1  0.10590000  0.17720000  0.87280000  1.0
  H  H38  1  0.12100000  0.29510000  0.67890000  1.0
  H  H39  1  0.61260000  0.11870000  0.31400000  1.0
  H  H40  1  0.68620000  0.26580000  0.50950000  1.0
  H  H41  1  0.65180000  0.85680000  0.47970000  1.0
  H  H42  1  0.68640000  0.94680000  0.59480000  1.0
  H  H43  1  0.01040000  0.18260000  0.77790000  1.0
  H  H44  1  0.70320000  0.09870000  0.67740000  1.0
  H  H45  1  0.68550000  0.21630000  0.62020000  1.0
  H  H46  1  0.01360000  0.22340000  0.64840000  1.0
  H  H47  1  0.00460000  0.36910000  0.68230000  1.0
  H  H48  1  0.82020000  0.98020000  0.63470000  1.0
  H  H49  1  0.77420000  0.37380000  0.66650000  1.0
  H  H50  1  0.93380000  0.03100000  0.66780000  1.0
  H  H51  1  0.88570000  0.43060000  0.68230000  1.0
  H  H52  1  0.48170000  0.81070000  0.43020000  1.0
  H  H53  1  0.44000000  0.85100000  0.31240000  1.0
  H  H54  1  0.49140000  0.22250000  0.46120000  1.0
  H  H55  1  0.44630000  0.25160000  0.34420000  1.0
  H  H56  1  0.28570000  0.26310000  0.33370000  1.0
  H  H57  1  0.10590000  0.32280000  0.37280000  1.0
  H  H58  1  0.12100000  0.20490000  0.17890000  1.0
  H  H59  1  0.61260000  0.38130000  0.81400000  1.0
  H  H60  1  0.68620000  0.23420000  0.00950000  1.0
  H  H61  1  0.65180000  0.64320000  0.97970000  1.0
  H  H62  1  0.68640000  0.55320000  0.09480000  1.0
  H  H63  1  0.01040000  0.31740000  0.27790000  1.0
  H  H64  1  0.70320000  0.40130000  0.17740000  1.0
  H  H65  1  0.68550000  0.28370000  0.12020000  1.0
  H  H66  1  0.01360000  0.27660000  0.14840000  1.0
  H  H67  1  0.00460000  0.13090000  0.18230000  1.0
  H  H68  1  0.82020000  0.51980000  0.13470000  1.0
  H  H69  1  0.77420000  0.12620000  0.16650000  1.0
  H  H70  1  0.93380000  0.46900000  0.16780000  1.0
  H  H71  1  0.88570000  0.06940000  0.18230000  1.0
  H  H72  1  0.51830000  0.31070000  0.06980000  1.0
  H  H73  1  0.56000000  0.35100000  0.18760000  1.0
  H  H74  1  0.50860000  0.72250000  0.03880000  1.0
  H  H75  1  0.55370000  0.75160000  0.15580000  1.0
  H  H76  1  0.71430000  0.76310000  0.16630000  1.0
  H  H77  1  0.89410000  0.82280000  0.12720000  1.0
  H  H78  1  0.87900000  0.70490000  0.32110000  1.0
  H  H79  1  0.38740000  0.88130000  0.68600000  1.0
  H  H80  1  0.31380000  0.73420000  0.49050000  1.0
  H  H81  1  0.34820000  0.14320000  0.52030000  1.0
  H  H82  1  0.31360000  0.05320000  0.40520000  1.0
  H  H83  1  0.98960000  0.81740000  0.22210000  1.0
  H  H84  1  0.29680000  0.90130000  0.32260000  1.0
  H  H85  1  0.31450000  0.78370000  0.37980000  1.0
  H  H86  1  0.98640000  0.77660000  0.35160000  1.0
  H  H87  1  0.99540000  0.63090000  0.31770000  1.0
  H  H88  1  0.17980000  0.01980000  0.36530000  1.0
  H  H89  1  0.22580000  0.62620000  0.33350000  1.0
  H  H90  1  0.06620000  0.96900000  0.33220000  1.0
  H  H91  1  0.11430000  0.56940000  0.31770000  1.0
  C  C92  1  0.51290000  0.98940000  0.53870000  1.0
  C  C93  1  0.52580000  0.09800000  0.58610000  1.0
  C  C94  1  0.54940000  0.07320000  0.65710000  1.0
  C  C95  1  0.52050000  0.85520000  0.56780000  1.0
  C  C96  1  0.54510000  0.83870000  0.63840000  1.0
  C  C97  1  0.38800000  0.34840000  0.15870000  1.0
  C  C98  1  0.76390000  0.65680000  0.56330000  1.0
  C  C99  1  0.74770000  0.83250000  0.79580000  1.0
  C  C100  1  0.76080000  0.73820000  0.68140000  1.0
  C  C101  1  0.79110000  0.78110000  0.75010000  1.0
  C  C102  1  0.79880000  0.69830000  0.63620000  1.0
  C  C103  1  0.89940000  0.73430000  0.72840000  1.0
  C  C104  1  0.86810000  0.69970000  0.65890000  1.0
  C  C105  1  0.85920000  0.77380000  0.77410000  1.0
  C  C106  1  0.37110000  0.60260000  0.13780000  1.0
  C  C107  1  0.35030000  0.71260000  0.09190000  1.0
  C  C108  1  0.32850000  0.69030000  0.02020000  1.0
  C  C109  1  0.36730000  0.46960000  0.11140000  1.0
  C  C110  1  0.35150000  0.85840000  0.11780000  1.0
  C  C111  1  0.34770000  0.44710000  0.03780000  1.0
  C  C112  1  0.32790000  0.55660000  0.99080000  1.0
  C  C113  1  0.21570000  0.67000000  0.85370000  1.0
  C  C114  1  0.28810000  0.63230000  0.86670000  1.0
  C  C115  1  0.00230000  0.76940000  0.81430000  1.0
  C  C116  1  0.16660000  0.57160000  0.85310000  1.0
  C  C117  1  0.19470000  0.80490000  0.83680000  1.0
  C  C118  1  0.09790000  0.60160000  0.83530000  1.0
  C  C119  1  0.07880000  0.73780000  0.82270000  1.0
  C  C120  1  0.12730000  0.83770000  0.82470000  1.0
  C  C121  1  0.48710000  0.48940000  0.96130000  1.0
  C  C122  1  0.47420000  0.59800000  0.91390000  1.0
  C  C123  1  0.45060000  0.57320000  0.84290000  1.0
  C  C124  1  0.47950000  0.35520000  0.93220000  1.0
  C  C125  1  0.45490000  0.33870000  0.86160000  1.0
  C  C126  1  0.61200000  0.84840000  0.34130000  1.0
  C  C127  1  0.23610000  0.15680000  0.93670000  1.0
  C  C128  1  0.25230000  0.33250000  0.70420000  1.0
  C  C129  1  0.23920000  0.23820000  0.81860000  1.0
  C  C130  1  0.20890000  0.28110000  0.74990000  1.0
  C  C131  1  0.20120000  0.19830000  0.86380000  1.0
  C  C132  1  0.10060000  0.23430000  0.77160000  1.0
  C  C133  1  0.13190000  0.19970000  0.84110000  1.0
  C  C134  1  0.14080000  0.27380000  0.72590000  1.0
  C  C135  1  0.62890000  0.10260000  0.36220000  1.0
  C  C136  1  0.64970000  0.21260000  0.40810000  1.0
  C  C137  1  0.67150000  0.19030000  0.47980000  1.0
  C  C138  1  0.63270000  0.96960000  0.38860000  1.0
  C  C139  1  0.64850000  0.35840000  0.38220000  1.0
  C  C140  1  0.65230000  0.94710000  0.46220000  1.0
  C  C141  1  0.67210000  0.05660000  0.50920000  1.0
  C  C142  1  0.78430000  0.17000000  0.64630000  1.0
  C  C143  1  0.71190000  0.13230000  0.63330000  1.0
  C  C144  1  0.99770000  0.26940000  0.68570000  1.0
  C  C145  1  0.83340000  0.07160000  0.64690000  1.0
  C  C146  1  0.80530000  0.30490000  0.66320000  1.0
  C  C147  1  0.90210000  0.10160000  0.66470000  1.0
  C  C148  1  0.92120000  0.23780000  0.67730000  1.0
  C  C149  1  0.87270000  0.33770000  0.67530000  1.0
  C  C150  1  0.48710000  0.01060000  0.46130000  1.0
  C  C151  1  0.47420000  0.90200000  0.41390000  1.0
  C  C152  1  0.45060000  0.92680000  0.34290000  1.0
  C  C153  1  0.47950000  0.14480000  0.43220000  1.0
  C  C154  1  0.45490000  0.16130000  0.36160000  1.0
  C  C155  1  0.61200000  0.65160000  0.84130000  1.0
  C  C156  1  0.23610000  0.34320000  0.43670000  1.0
  C  C157  1  0.25230000  0.16750000  0.20420000  1.0
  C  C158  1  0.23920000  0.26180000  0.31860000  1.0
  C  C159  1  0.20890000  0.21890000  0.24990000  1.0
  C  C160  1  0.20120000  0.30170000  0.36380000  1.0
  C  C161  1  0.10060000  0.26570000  0.27160000  1.0
  C  C162  1  0.13190000  0.30030000  0.34110000  1.0
  C  C163  1  0.14080000  0.22620000  0.22590000  1.0
  C  C164  1  0.62890000  0.39740000  0.86220000  1.0
  C  C165  1  0.64970000  0.28740000  0.90810000  1.0
  C  C166  1  0.67150000  0.30970000  0.97980000  1.0
  C  C167  1  0.63270000  0.53040000  0.88860000  1.0
  C  C168  1  0.64850000  0.14160000  0.88220000  1.0
  C  C169  1  0.65230000  0.55290000  0.96220000  1.0
  C  C170  1  0.67210000  0.44340000  0.00920000  1.0
  C  C171  1  0.78430000  0.33000000  0.14630000  1.0
  C  C172  1  0.71190000  0.36770000  0.13330000  1.0
  C  C173  1  0.99770000  0.23060000  0.18570000  1.0
  C  C174  1  0.83340000  0.42840000  0.14690000  1.0
  C  C175  1  0.80530000  0.19510000  0.16320000  1.0
  C  C176  1  0.90210000  0.39840000  0.16470000  1.0
  C  C177  1  0.92120000  0.26220000  0.17730000  1.0
  C  C178  1  0.87270000  0.16230000  0.17530000  1.0
  C  C179  1  0.51290000  0.51060000  0.03870000  1.0
  C  C180  1  0.52580000  0.40200000  0.08610000  1.0
  C  C181  1  0.54940000  0.42680000  0.15710000  1.0
  C  C182  1  0.52050000  0.64480000  0.06780000  1.0
  C  C183  1  0.54510000  0.66130000  0.13840000  1.0
  C  C184  1  0.38800000  0.15160000  0.65870000  1.0
  C  C185  1  0.76390000  0.84320000  0.06330000  1.0
  C  C186  1  0.74770000  0.66750000  0.29580000  1.0
  C  C187  1  0.76080000  0.76180000  0.18140000  1.0
  C  C188  1  0.79110000  0.71890000  0.25010000  1.0
  C  C189  1  0.79880000  0.80170000  0.13620000  1.0
  C  C190  1  0.89940000  0.76570000  0.22840000  1.0
  C  C191  1  0.86810000  0.80030000  0.15890000  1.0
  C  C192  1  0.85920000  0.72620000  0.27410000  1.0
  C  C193  1  0.37110000  0.89740000  0.63780000  1.0
  C  C194  1  0.35030000  0.78740000  0.59190000  1.0
  C  C195  1  0.32850000  0.80970000  0.52020000  1.0
  C  C196  1  0.36730000  0.03040000  0.61140000  1.0
  C  C197  1  0.35150000  0.64160000  0.61780000  1.0
  C  C198  1  0.34770000  0.05290000  0.53780000  1.0
  C  C199  1  0.32790000  0.94340000  0.49080000  1.0
  C  C200  1  0.21570000  0.83000000  0.35370000  1.0
  C  C201  1  0.28810000  0.86770000  0.36670000  1.0
  C  C202  1  0.00230000  0.73060000  0.31430000  1.0
  C  C203  1  0.16660000  0.92840000  0.35310000  1.0
  C  C204  1  0.19470000  0.69510000  0.33680000  1.0
  C  C205  1  0.09790000  0.89840000  0.33530000  1.0
  C  C206  1  0.07880000  0.76220000  0.32270000  1.0
  C  C207  1  0.12730000  0.66230000  0.32470000  1.0
  N  N208  1  0.55790000  0.94380000  0.68430000  1.0
  N  N209  1  0.31050000  0.53130000  0.91900000  1.0
  N  N210  1  0.96800000  0.72150000  0.74980000  1.0
  N  N211  1  0.44210000  0.44380000  0.81570000  1.0
  N  N212  1  0.68950000  0.03130000  0.58100000  1.0
  N  N213  1  0.03200000  0.22150000  0.75020000  1.0
  N  N214  1  0.44210000  0.05620000  0.31570000  1.0
  N  N215  1  0.68950000  0.46870000  0.08100000  1.0
  N  N216  1  0.03200000  0.27850000  0.25020000  1.0
  N  N217  1  0.55790000  0.55620000  0.18430000  1.0
  N  N218  1  0.31050000  0.96870000  0.41900000  1.0
  N  N219  1  0.96800000  0.77850000  0.24980000  1.0
  O  O220  1  0.38520000  0.88630000  0.17760000  1.0
  O  O221  1  0.69240000  0.87920000  0.76610000  1.0
  O  O222  1  0.37790000  0.22550000  0.13160000  1.0
  O  O223  1  0.77200000  0.82470000  0.86210000  1.0
  O  O224  1  0.41250000  0.36410000  0.22120000  1.0
  O  O225  1  0.70390000  0.65420000  0.54450000  1.0
  O  O226  1  0.31610000  0.94760000  0.07730000  1.0
  O  O227  1  0.80140000  0.63970000  0.52020000  1.0
  O  O228  1  0.61480000  0.38630000  0.32240000  1.0
  O  O229  1  0.30760000  0.37920000  0.73390000  1.0
  O  O230  1  0.62210000  0.72550000  0.36840000  1.0
  O  O231  1  0.22800000  0.32470000  0.63790000  1.0
  O  O232  1  0.58750000  0.86410000  0.27880000  1.0
  O  O233  1  0.29610000  0.15420000  0.95550000  1.0
  O  O234  1  0.68390000  0.44760000  0.42270000  1.0
  O  O235  1  0.19860000  0.13970000  0.97980000  1.0
  O  O236  1  0.61480000  0.11370000  0.82240000  1.0
  O  O237  1  0.30760000  0.12080000  0.23390000  1.0
  O  O238  1  0.62210000  0.77450000  0.86840000  1.0
  O  O239  1  0.22800000  0.17530000  0.13790000  1.0
  O  O240  1  0.58750000  0.63590000  0.77880000  1.0
  O  O241  1  0.29610000  0.34580000  0.45550000  1.0
  O  O242  1  0.68390000  0.05240000  0.92270000  1.0
  O  O243  1  0.19860000  0.36030000  0.47980000  1.0
  O  O244  1  0.38520000  0.61370000  0.67760000  1.0
  O  O245  1  0.69240000  0.62080000  0.26610000  1.0
  O  O246  1  0.37790000  0.27450000  0.63160000  1.0
  O  O247  1  0.77200000  0.67530000  0.36210000  1.0
  O  O248  1  0.41250000  0.13590000  0.72120000  1.0
  O  O249  1  0.70390000  0.84580000  0.04450000  1.0
  O  O250  1  0.31610000  0.55240000  0.57730000  1.0
  O  O251  1  0.80140000  0.86030000  0.02020000  1.0
