# generated using pymatgen
data_Na7Mn12H125(C7O5)10
_symmetry_space_group_name_H-M   'P 1'
_cell_length_a   12.84320000
_cell_length_b   19.56070000
_cell_length_c   25.69100000
_cell_angle_alpha   79.22400000
_cell_angle_beta   78.86400000
_cell_angle_gamma   71.24400000
_symmetry_Int_Tables_number   1
_chemical_formula_structural   Na7Mn12H125(C7O5)10
_chemical_formula_sum   'Na14 Mn24 H250 C140 O100'
_cell_volume   5941.93226498
_cell_formula_units_Z   2
loop_
 _symmetry_equiv_pos_site_id
 _symmetry_equiv_pos_as_xyz
  1  'x, y, z'
loop_
 _atom_site_type_symbol
 _atom_site_label
 _atom_site_symmetry_multiplicity
 _atom_site_fract_x
 _atom_site_fract_y
 _atom_site_fract_z
 _atom_site_occupancy
  Na  Na0  1  0.91400000  0.28803000  0.30370000  1.0
  Na  Na1  1  0.44780000  0.45384000  0.46699000  1.0
  Na  Na2  1  0.57840000  0.62490000  0.21315000  1.0
  Na  Na3  1  0.05880000  0.10401000  0.27771000  1.0
  Na  Na4  1  0.37760000  0.02656000  0.03759000  1.0
  Na  Na5  1  0.55280000  0.79581000  0.25453000  1.0
  Na  Na6  1  0.58390000  0.15558000  0.21968000  1.0
  Na  Na7  1  0.08600000  0.71197000  0.69630000  1.0
  Na  Na8  1  0.55220000  0.54616000  0.53301000  1.0
  Na  Na9  1  0.42160000  0.37510000  0.78685000  1.0
  Na  Na10  1  0.94120000  0.89599000  0.72229000  1.0
  Na  Na11  1  0.62240000  0.97344000  0.96241000  1.0
  Na  Na12  1  0.44720000  0.20419000  0.74547000  1.0
  Na  Na13  1  0.41610000  0.84442000  0.78032000  1.0
  Mn  Mn14  1  0.68964000  0.37490000  0.38288000  1.0
  Mn  Mn15  1  0.74210000  0.45115000  0.26276000  1.0
  Mn  Mn16  1  0.65876000  0.31032000  0.27985000  1.0
  Mn  Mn17  1  0.50547000  0.46495000  0.24321000  1.0
  Mn  Mn18  1  0.53006000  0.52976000  0.33825000  1.0
  Mn  Mn19  1  0.44389000  0.39025000  0.35793000  1.0
  Mn  Mn20  1  0.23412000  0.05706000  0.15445000  1.0
  Mn  Mn21  1  0.29866000  0.96346000  0.26136000  1.0
  Mn  Mn22  1  0.31171000  0.11885000  0.24138000  1.0
  Mn  Mn23  1  0.53172000  0.98624000  0.24411000  1.0
  Mn  Mn24  1  0.45700000  0.92283000  0.15663000  1.0
  Mn  Mn25  1  0.47560000  0.08855000  0.13268000  1.0
  Mn  Mn26  1  0.31036000  0.62510000  0.61712000  1.0
  Mn  Mn27  1  0.25790000  0.54885000  0.73724000  1.0
  Mn  Mn28  1  0.34124000  0.68968000  0.72015000  1.0
  Mn  Mn29  1  0.49453000  0.53505000  0.75679000  1.0
  Mn  Mn30  1  0.46994000  0.47024000  0.66175000  1.0
  Mn  Mn31  1  0.55611000  0.60975000  0.64207000  1.0
  Mn  Mn32  1  0.76588000  0.94294000  0.84555000  1.0
  Mn  Mn33  1  0.70134000  0.03654000  0.73864000  1.0
  Mn  Mn34  1  0.68829000  0.88115000  0.75862000  1.0
  Mn  Mn35  1  0.46828000  0.01376000  0.75589000  1.0
  Mn  Mn36  1  0.54300000  0.07717000  0.84337000  1.0
  Mn  Mn37  1  0.52440000  0.91145000  0.86732000  1.0
  H  H38  1  0.72040000  0.48870000  0.44200000  1.0
  H  H39  1  0.64290000  0.56670000  0.42000000  1.0
  H  H40  1  0.69110000  0.62320000  0.32580000  1.0
  H  H41  1  0.79740000  0.58080000  0.28810000  1.0
  H  H42  1  0.92220000  0.46060000  0.32330000  1.0
  H  H43  1  0.88940000  0.42290000  0.38230000  1.0
  H  H44  1  0.90050000  0.58230000  0.35140000  1.0
  H  H45  1  0.80060000  0.61170000  0.39690000  1.0
  H  H46  1  0.87700000  0.50780000  0.45740000  1.0
  H  H47  1  0.96150000  0.55500000  0.43550000  1.0
  H  H48  1  0.97920000  0.48150000  0.41170000  1.0
  H  H49  1  0.56560000  0.38860000  0.14350000  1.0
  H  H50  1  0.64230000  0.30850000  0.16170000  1.0
  H  H51  1  0.83650000  0.29180000  0.18170000  1.0
  H  H52  1  0.88060000  0.36130000  0.17380000  1.0
  H  H53  1  0.76380000  0.48430000  0.14120000  1.0
  H  H54  1  0.64120000  0.49610000  0.12920000  1.0
  H  H55  1  0.84700000  0.38320000  0.08380000  1.0
  H  H56  1  0.79390000  0.31790000  0.09200000  1.0
  H  H57  1  0.69960000  0.46310000  0.04440000  1.0
  H  H58  1  0.62870000  0.40650000  0.06120000  1.0
  H  H59  1  0.73570000  0.39090000  0.01630000  1.0
  H  H60  1  0.76820000  0.21000000  0.40760000  1.0
  H  H61  1  0.75410000  0.17770000  0.35750000  1.0
  H  H62  1  0.48060000  0.27720000  0.45880000  1.0
  H  H63  1  0.60240000  0.27150000  0.46850000  1.0
  H  H64  1  0.56340000  0.18930000  0.34060000  1.0
  H  H65  1  0.45730000  0.22970000  0.37950000  1.0
  H  H66  1  0.63570000  0.14870000  0.47410000  1.0
  H  H67  1  0.53030000  0.14520000  0.45170000  1.0
  H  H68  1  0.66200000  0.07970000  0.38160000  1.0
  H  H69  1  0.66070000  0.03520000  0.44060000  1.0
  H  H70  1  0.75730000  0.07210000  0.41610000  1.0
  H  H71  1  0.31160000  0.60730000  0.24520000  1.0
  H  H72  1  0.32450000  0.64360000  0.29350000  1.0
  H  H73  1  0.28540000  0.58550000  0.38720000  1.0
  H  H74  1  0.24300000  0.51500000  0.39870000  1.0
  H  H75  1  0.21740000  0.46160000  0.32180000  1.0
  H  H76  1  0.24700000  0.49850000  0.26220000  1.0
  H  H77  1  0.12410000  0.61330000  0.28260000  1.0
  H  H78  1  0.09210000  0.57410000  0.34100000  1.0
  H  H79  1  0.12400000  0.66570000  0.37890000  1.0
  H  H80  1  0.02960000  0.69970000  0.34090000  1.0
  H  H81  1  0.15260000  0.70560000  0.32000000  1.0
  H  H82  1  0.14030000  0.44070000  0.20270000  1.0
  H  H83  1  0.04880000  0.51780000  0.20910000  1.0
  H  H84  1  0.06520000  0.48060000  0.15650000  1.0
  H  H85  1  0.92160000  0.13830000  0.17330000  1.0
  H  H86  1  0.79770000  0.13500000  0.17610000  1.0
  H  H87  1  0.88000000  0.07610000  0.21340000  1.0
  H  H88  1  0.14520000  0.35250000  0.50950000  1.0
  H  H89  1  0.20200000  0.28680000  0.47470000  1.0
  H  H90  1  0.11850000  0.36060000  0.45000000  1.0
  H  H91  1  0.47460000  0.77000000  0.38130000  1.0
  H  H92  1  0.37550000  0.73790000  0.41140000  1.0
  H  H93  1  0.36000000  0.79380000  0.35730000  1.0
  H  H94  1  0.26470000  0.59170000  0.12400000  1.0
  H  H95  1  0.36360000  0.53680000  0.09040000  1.0
  H  H96  1  0.35670000  0.62110000  0.08310000  1.0
  H  H97  1  0.43150000  0.59680000  0.44530000  1.0
  H  H98  1  0.36840000  0.61180000  0.49200000  1.0
  H  H99  1  0.31000000  0.87320000  0.10230000  1.0
  H  H100  1  0.19930000  0.94020000  0.09820000  1.0
  H  H101  1  0.06480000  0.97300000  0.18020000  1.0
  H  H102  1  0.08900000  0.92700000  0.23710000  1.0
  H  H103  1  0.26090000  0.82340000  0.24450000  1.0
  H  H104  1  0.34430000  0.79810000  0.19220000  1.0
  H  H105  1  0.10350000  0.82070000  0.20220000  1.0
  H  H106  1  0.08320000  0.86600000  0.14480000  1.0
  H  H107  1  0.21670000  0.78590000  0.10400000  1.0
  H  H108  1  0.14980000  0.74080000  0.14870000  1.0
  H  H109  1  0.26590000  0.74660000  0.15830000  1.0
  H  H110  1  0.40610000  0.12380000  0.34160000  1.0
  H  H111  1  0.51780000  0.05730000  0.34180000  1.0
  H  H112  1  0.21790000  0.01440000  0.37220000  1.0
  H  H113  1  0.22010000  0.09700000  0.36330000  1.0
  H  H114  1  0.50590000  0.92810000  0.36340000  1.0
  H  H115  1  0.38740000  0.91400000  0.37360000  1.0
  H  H116  1  0.33090000  0.98770000  0.44310000  1.0
  H  H117  1  0.44810000  0.00340000  0.43210000  1.0
  H  H118  1  0.35330000  0.13110000  0.42700000  1.0
  H  H119  1  0.32390000  0.08780000  0.48450000  1.0
  H  H120  1  0.23770000  0.11250000  0.44220000  1.0
  H  H121  1  0.20910000  0.18830000  0.06770000  1.0
  H  H122  1  0.32760000  0.20230000  0.05870000  1.0
  H  H123  1  0.38020000  0.25330000  0.12770000  1.0
  H  H124  1  0.29710000  0.27040000  0.18170000  1.0
  H  H125  1  0.11500000  0.24480000  0.19730000  1.0
  H  H126  1  0.08200000  0.21100000  0.15310000  1.0
  H  H127  1  0.11470000  0.30850000  0.08560000  1.0
  H  H128  1  0.13650000  0.34090000  0.13360000  1.0
  H  H129  1  0.27280000  0.38000000  0.08390000  1.0
  H  H130  1  0.20150000  0.38510000  0.03800000  1.0
  H  H131  1  0.30890000  0.31680000  0.04670000  1.0
  H  H132  1  0.75830000  0.99590000  0.18350000  1.0
  H  H133  1  0.72590000  0.04660000  0.12910000  1.0
  H  H134  1  0.70180000  0.83890000  0.15660000  1.0
  H  H135  1  0.74000000  0.86920000  0.20110000  1.0
  H  H136  1  0.66560000  0.99890000  0.05980000  1.0
  H  H137  1  0.65840000  0.91750000  0.06990000  1.0
  H  H138  1  0.85480000  0.95160000  0.07720000  1.0
  H  H139  1  0.88590000  0.91430000  0.13520000  1.0
  H  H140  1  0.86330000  0.80720000  0.11970000  1.0
  H  H141  1  0.95710000  0.83150000  0.07650000  1.0
  H  H142  1  0.83670000  0.84490000  0.06090000  1.0
  H  H143  1  0.12670000  0.85320000  0.40290000  1.0
  H  H144  1  0.08760000  0.83330000  0.35360000  1.0
  H  H145  1  0.00260000  0.89170000  0.38980000  1.0
  H  H146  1  0.96650000  0.16560000  0.03820000  1.0
  H  H147  1  0.93900000  0.09500000  0.07320000  1.0
  H  H148  1  0.99590000  0.09230000  0.01210000  1.0
  H  H149  1  0.14360000  0.33790000  0.31380000  1.0
  H  H150  1  0.21620000  0.28160000  0.35640000  1.0
  H  H151  1  0.08400000  0.29820000  0.36560000  1.0
  H  H152  1  0.60730000  0.26690000  0.01600000  1.0
  H  H153  1  0.69140000  0.19050000  0.00110000  1.0
  H  H154  1  0.72410000  0.23540000  0.03820000  1.0
  H  H155  1  0.60650000  0.74820000  0.04910000  1.0
  H  H156  1  0.55000000  0.69100000  0.08690000  1.0
  H  H157  1  0.67500000  0.68660000  0.09060000  1.0
  H  H158  1  0.86610000  0.90400000  0.29790000  1.0
  H  H159  1  0.80180000  0.92780000  0.35460000  1.0
  H  H160  1  0.86980000  0.97750000  0.31540000  1.0
  H  H161  1  0.53470000  0.10090000  0.01110000  1.0
  H  H162  1  0.49220000  0.12100000  0.96500000  1.0
  H  H163  1  0.27960000  0.51130000  0.55800000  1.0
  H  H164  1  0.35710000  0.43330000  0.58000000  1.0
  H  H165  1  0.30890000  0.37680000  0.67420000  1.0
  H  H166  1  0.20260000  0.41920000  0.71190000  1.0
  H  H167  1  0.07780000  0.53940000  0.67670000  1.0
  H  H168  1  0.11060000  0.57710000  0.61770000  1.0
  H  H169  1  0.09950000  0.41770000  0.64860000  1.0
  H  H170  1  0.19940000  0.38830000  0.60310000  1.0
  H  H171  1  0.12300000  0.49220000  0.54260000  1.0
  H  H172  1  0.03850000  0.44500000  0.56450000  1.0
  H  H173  1  0.02080000  0.51850000  0.58830000  1.0
  H  H174  1  0.43440000  0.61140000  0.85650000  1.0
  H  H175  1  0.35770000  0.69150000  0.83830000  1.0
  H  H176  1  0.16350000  0.70820000  0.81830000  1.0
  H  H177  1  0.11940000  0.63870000  0.82620000  1.0
  H  H178  1  0.23620000  0.51570000  0.85880000  1.0
  H  H179  1  0.35880000  0.50390000  0.87080000  1.0
  H  H180  1  0.15300000  0.61680000  0.91620000  1.0
  H  H181  1  0.20610000  0.68210000  0.90800000  1.0
  H  H182  1  0.30040000  0.53690000  0.95560000  1.0
  H  H183  1  0.37130000  0.59350000  0.93880000  1.0
  H  H184  1  0.26430000  0.60910000  0.98370000  1.0
  H  H185  1  0.23180000  0.79000000  0.59240000  1.0
  H  H186  1  0.24590000  0.82230000  0.64250000  1.0
  H  H187  1  0.51940000  0.72280000  0.54120000  1.0
  H  H188  1  0.39760000  0.72850000  0.53150000  1.0
  H  H189  1  0.43660000  0.81070000  0.65940000  1.0
  H  H190  1  0.54270000  0.77030000  0.62050000  1.0
  H  H191  1  0.36430000  0.85130000  0.52590000  1.0
  H  H192  1  0.46970000  0.85480000  0.54830000  1.0
  H  H193  1  0.33800000  0.92030000  0.61840000  1.0
  H  H194  1  0.33930000  0.96480000  0.55940000  1.0
  H  H195  1  0.24270000  0.92790000  0.58390000  1.0
  H  H196  1  0.68840000  0.39270000  0.75480000  1.0
  H  H197  1  0.67550000  0.35640000  0.70650000  1.0
  H  H198  1  0.71460000  0.41450000  0.61280000  1.0
  H  H199  1  0.75700000  0.48500000  0.60130000  1.0
  H  H200  1  0.78260000  0.53840000  0.67820000  1.0
  H  H201  1  0.75300000  0.50150000  0.73780000  1.0
  H  H202  1  0.87590000  0.38670000  0.71740000  1.0
  H  H203  1  0.90790000  0.42590000  0.65900000  1.0
  H  H204  1  0.87600000  0.33430000  0.62110000  1.0
  H  H205  1  0.97040000  0.30030000  0.65910000  1.0
  H  H206  1  0.84740000  0.29440000  0.68000000  1.0
  H  H207  1  0.85970000  0.55930000  0.79730000  1.0
  H  H208  1  0.95120000  0.48220000  0.79090000  1.0
  H  H209  1  0.93480000  0.51940000  0.84350000  1.0
  H  H210  1  0.07840000  0.86170000  0.82670000  1.0
  H  H211  1  0.20230000  0.86500000  0.82390000  1.0
  H  H212  1  0.12000000  0.92390000  0.78660000  1.0
  H  H213  1  0.85480000  0.64750000  0.49050000  1.0
  H  H214  1  0.79800000  0.71320000  0.52530000  1.0
  H  H215  1  0.88150000  0.63940000  0.55000000  1.0
  H  H216  1  0.52540000  0.23000000  0.61870000  1.0
  H  H217  1  0.62450000  0.26210000  0.58860000  1.0
  H  H218  1  0.64000000  0.20620000  0.64270000  1.0
  H  H219  1  0.73530000  0.40830000  0.87600000  1.0
  H  H220  1  0.63640000  0.46320000  0.90960000  1.0
  H  H221  1  0.64330000  0.37890000  0.91690000  1.0
  H  H222  1  0.56850000  0.40320000  0.55470000  1.0
  H  H223  1  0.63160000  0.38820000  0.50800000  1.0
  H  H224  1  0.69000000  0.12680000  0.89770000  1.0
  H  H225  1  0.80070000  0.05980000  0.90180000  1.0
  H  H226  1  0.93520000  0.02700000  0.81980000  1.0
  H  H227  1  0.91100000  0.07300000  0.76290000  1.0
  H  H228  1  0.73910000  0.17660000  0.75550000  1.0
  H  H229  1  0.65570000  0.20190000  0.80780000  1.0
  H  H230  1  0.89650000  0.17930000  0.79780000  1.0
  H  H231  1  0.91680000  0.13400000  0.85520000  1.0
  H  H232  1  0.78330000  0.21410000  0.89600000  1.0
  H  H233  1  0.85020000  0.25920000  0.85130000  1.0
  H  H234  1  0.73410000  0.25340000  0.84170000  1.0
  H  H235  1  0.59390000  0.87620000  0.65840000  1.0
  H  H236  1  0.48220000  0.94270000  0.65820000  1.0
  H  H237  1  0.78210000  0.98560000  0.62780000  1.0
  H  H238  1  0.77990000  0.90300000  0.63670000  1.0
  H  H239  1  0.49410000  0.07190000  0.63660000  1.0
  H  H240  1  0.61260000  0.08600000  0.62640000  1.0
  H  H241  1  0.66910000  0.01230000  0.55690000  1.0
  H  H242  1  0.55190000  0.99660000  0.56790000  1.0
  H  H243  1  0.64670000  0.86890000  0.57300000  1.0
  H  H244  1  0.67610000  0.91220000  0.51550000  1.0
  H  H245  1  0.76230000  0.88750000  0.55780000  1.0
  H  H246  1  0.79090000  0.81170000  0.93230000  1.0
  H  H247  1  0.67240000  0.79770000  0.94130000  1.0
  H  H248  1  0.61980000  0.74670000  0.87230000  1.0
  H  H249  1  0.70290000  0.72960000  0.81830000  1.0
  H  H250  1  0.88500000  0.75520000  0.80270000  1.0
  H  H251  1  0.91800000  0.78900000  0.84690000  1.0
  H  H252  1  0.88530000  0.69150000  0.91440000  1.0
  H  H253  1  0.86350000  0.65910000  0.86640000  1.0
  H  H254  1  0.72720000  0.62000000  0.91610000  1.0
  H  H255  1  0.79850000  0.61490000  0.96200000  1.0
  H  H256  1  0.69110000  0.68320000  0.95330000  1.0
  H  H257  1  0.24170000  0.00410000  0.81650000  1.0
  H  H258  1  0.27410000  0.95340000  0.87090000  1.0
  H  H259  1  0.29820000  0.16110000  0.84340000  1.0
  H  H260  1  0.26000000  0.13080000  0.79890000  1.0
  H  H261  1  0.33440000  0.00110000  0.94020000  1.0
  H  H262  1  0.34160000  0.08250000  0.93010000  1.0
  H  H263  1  0.14520000  0.04840000  0.92280000  1.0
  H  H264  1  0.11410000  0.08570000  0.86480000  1.0
  H  H265  1  0.13670000  0.19280000  0.88030000  1.0
  H  H266  1  0.04290000  0.16850000  0.92350000  1.0
  H  H267  1  0.16330000  0.15510000  0.93910000  1.0
  H  H268  1  0.87330000  0.14680000  0.59710000  1.0
  H  H269  1  0.91240000  0.16670000  0.64640000  1.0
  H  H270  1  0.99740000  0.10830000  0.61020000  1.0
  H  H271  1  0.03350000  0.83440000  0.96180000  1.0
  H  H272  1  0.06100000  0.90500000  0.92680000  1.0
  H  H273  1  0.00410000  0.90770000  0.98790000  1.0
  H  H274  1  0.85640000  0.66210000  0.68620000  1.0
  H  H275  1  0.78380000  0.71840000  0.64360000  1.0
  H  H276  1  0.91600000  0.70180000  0.63440000  1.0
  H  H277  1  0.39270000  0.73310000  0.98400000  1.0
  H  H278  1  0.30860000  0.80950000  0.99890000  1.0
  H  H279  1  0.27590000  0.76460000  0.96180000  1.0
  H  H280  1  0.39350000  0.25180000  0.95090000  1.0
  H  H281  1  0.45000000  0.30900000  0.91310000  1.0
  H  H282  1  0.32500000  0.31340000  0.90940000  1.0
  H  H283  1  0.13390000  0.09600000  0.70210000  1.0
  H  H284  1  0.19820000  0.07220000  0.64540000  1.0
  H  H285  1  0.13020000  0.02250000  0.68460000  1.0
  H  H286  1  0.46530000  0.89910000  0.98890000  1.0
  H  H287  1  0.50780000  0.87900000  0.03500000  1.0
  C  C288  1  0.78110000  0.52670000  0.36460000  1.0
  C  C289  1  0.68710000  0.51790000  0.41020000  1.0
  C  C290  1  0.73480000  0.57450000  0.31580000  1.0
  C  C291  1  0.85900000  0.45230000  0.34990000  1.0
  C  C292  1  0.85170000  0.56700000  0.38310000  1.0
  C  C293  1  0.92370000  0.52400000  0.42570000  1.0
  C  C294  1  0.72440000  0.38690000  0.15120000  1.0
  C  C295  1  0.62130000  0.36020000  0.16720000  1.0
  C  C296  1  0.81440000  0.34390000  0.18630000  1.0
  C  C297  1  0.69570000  0.46910000  0.15390000  1.0
  C  C298  1  0.77620000  0.37080000  0.09290000  1.0
  C  C299  1  0.70360000  0.41140000  0.04990000  1.0
  C  C300  1  0.60460000  0.22050000  0.40380000  1.0
  C  C301  1  0.72250000  0.21890000  0.37870000  1.0
  C  C302  1  0.55430000  0.28080000  0.44050000  1.0
  C  C303  1  0.53250000  0.23070000  0.36160000  1.0
  C  C304  1  0.60750000  0.14760000  0.44120000  1.0
  C  C305  1  0.67830000  0.07720000  0.41770000  1.0
  C  C306  1  0.26340000  0.55490000  0.31980000  1.0
  C  C307  1  0.33600000  0.59660000  0.28090000  1.0
  C  C308  1  0.29480000  0.53880000  0.37440000  1.0
  C  C309  1  0.27060000  0.48480000  0.29810000  1.0
  C  C310  1  0.14050000  0.60290000  0.31980000  1.0
  C  C311  1  0.10890000  0.67490000  0.34180000  1.0
  C  C312  1  0.98200000  0.43340000  0.22180000  1.0
  C  C313  1  0.06630000  0.47140000  0.19520000  1.0
  C  C314  1  0.81820000  0.17600000  0.24000000  1.0
  C  C315  1  0.85780000  0.12710000  0.19690000  1.0
  C  C316  1  0.27220000  0.37050000  0.45180000  1.0
  C  C317  1  0.17610000  0.33990000  0.47340000  1.0
  C  C318  1  0.45750000  0.69080000  0.34410000  1.0
  C  C319  1  0.41300000  0.75360000  0.37630000  1.0
  C  C320  1  0.41430000  0.56400000  0.15350000  1.0
  C  C321  1  0.34350000  0.57980000  0.10870000  1.0
  C  C322  1  0.20880000  0.88560000  0.17480000  1.0
  C  C323  1  0.25940000  0.91470000  0.12030000  1.0
  C  C324  1  0.12400000  0.94810000  0.20280000  1.0
  C  C325  1  0.29780000  0.84130000  0.20950000  1.0
  C  C326  1  0.14170000  0.83570000  0.16660000  1.0
  C  C327  1  0.19770000  0.77250000  0.14260000  1.0
  C  C328  1  0.37570000  0.02330000  0.36310000  1.0
  C  C329  1  0.44230000  0.07440000  0.33140000  1.0
  C  C330  1  0.25750000  0.04870000  0.35110000  1.0
  C  C331  1  0.43160000  0.94510000  0.35180000  1.0
  C  C332  1  0.37100000  0.02260000  0.42370000  1.0
  C  C333  1  0.31660000  0.09500000  0.44640000  1.0
  C  C334  1  0.23210000  0.23340000  0.12950000  1.0
  C  C335  1  0.27280000  0.18430000  0.08570000  1.0
  C  C336  1  0.32690000  0.23510000  0.15560000  1.0
  C  C337  1  0.14440000  0.20950000  0.17110000  1.0
  C  C338  1  0.17360000  0.31130000  0.10420000  1.0
  C  C339  1  0.24560000  0.35190000  0.06470000  1.0
  C  C340  1  0.71770000  0.94210000  0.13200000  1.0
  C  C341  1  0.70510000  0.00940000  0.15740000  1.0
  C  C342  1  0.68900000  0.88260000  0.17400000  1.0
  C  C343  1  0.64330000  0.96150000  0.08730000  1.0
  C  C344  1  0.84000000  0.91540000  0.10800000  1.0
  C  C345  1  0.87740000  0.84380000  0.08980000  1.0
  C  C346  1  0.11710000  0.93150000  0.33830000  1.0
  C  C347  1  0.08040000  0.87250000  0.37420000  1.0
  C  C348  1  0.10690000  0.08680000  0.06300000  1.0
  C  C349  1  0.99170000  0.11220000  0.04500000  1.0
  C  C350  1  0.16230000  0.23140000  0.30820000  1.0
  C  C351  1  0.15050000  0.29260000  0.33860000  1.0
  C  C352  1  0.61010000  0.18380000  0.07790000  1.0
  C  C353  1  0.66280000  0.22250000  0.02910000  1.0
  C  C354  1  0.55910000  0.77040000  0.12700000  1.0
  C  C355  1  0.60140000  0.71960000  0.08460000  1.0
  C  C356  1  0.72420000  0.98630000  0.29230000  1.0
  C  C357  1  0.82370000  0.94550000  0.31710000  1.0
  C  C358  1  0.21890000  0.47330000  0.63540000  1.0
  C  C359  1  0.31290000  0.48210000  0.58980000  1.0
  C  C360  1  0.26520000  0.42550000  0.68420000  1.0
  C  C361  1  0.14100000  0.54770000  0.65010000  1.0
  C  C362  1  0.14830000  0.43300000  0.61690000  1.0
  C  C363  1  0.07630000  0.47600000  0.57430000  1.0
  C  C364  1  0.27560000  0.61310000  0.84880000  1.0
  C  C365  1  0.37870000  0.63980000  0.83280000  1.0
  C  C366  1  0.18560000  0.65610000  0.81370000  1.0
  C  C367  1  0.30430000  0.53090000  0.84610000  1.0
  C  C368  1  0.22380000  0.62920000  0.90710000  1.0
  C  C369  1  0.29640000  0.58860000  0.95010000  1.0
  C  C370  1  0.39540000  0.77950000  0.59620000  1.0
  C  C371  1  0.27750000  0.78110000  0.62130000  1.0
  C  C372  1  0.44570000  0.71920000  0.55950000  1.0
  C  C373  1  0.46750000  0.76930000  0.63840000  1.0
  C  C374  1  0.39250000  0.85240000  0.55880000  1.0
  C  C375  1  0.32170000  0.92280000  0.58230000  1.0
  C  C376  1  0.73660000  0.44510000  0.68020000  1.0
  C  C377  1  0.66400000  0.40340000  0.71910000  1.0
  C  C378  1  0.70520000  0.46120000  0.62560000  1.0
  C  C379  1  0.72940000  0.51520000  0.70190000  1.0
  C  C380  1  0.85950000  0.39710000  0.68020000  1.0
  C  C381  1  0.89110000  0.32510000  0.65820000  1.0
  C  C382  1  0.01800000  0.56660000  0.77820000  1.0
  C  C383  1  0.93370000  0.52860000  0.80480000  1.0
  C  C384  1  0.18180000  0.82400000  0.76000000  1.0
  C  C385  1  0.14220000  0.87290000  0.80310000  1.0
  C  C386  1  0.72780000  0.62950000  0.54820000  1.0
  C  C387  1  0.82390000  0.66010000  0.52660000  1.0
  C  C388  1  0.54250000  0.30920000  0.65590000  1.0
  C  C389  1  0.58700000  0.24640000  0.62370000  1.0
  C  C390  1  0.58570000  0.43600000  0.84650000  1.0
  C  C391  1  0.65650000  0.42020000  0.89130000  1.0
  C  C392  1  0.79120000  0.11440000  0.82520000  1.0
  C  C393  1  0.74060000  0.08530000  0.87970000  1.0
  C  C394  1  0.87600000  0.05190000  0.79720000  1.0
  C  C395  1  0.70220000  0.15870000  0.79050000  1.0
  C  C396  1  0.85830000  0.16430000  0.83340000  1.0
  C  C397  1  0.80230000  0.22750000  0.85740000  1.0
  C  C398  1  0.62430000  0.97670000  0.63690000  1.0
  C  C399  1  0.55770000  0.92560000  0.66860000  1.0
  C  C400  1  0.74250000  0.95130000  0.64890000  1.0
  C  C401  1  0.56840000  0.05490000  0.64820000  1.0
  C  C402  1  0.62900000  0.97740000  0.57630000  1.0
  C  C403  1  0.68340000  0.90500000  0.55360000  1.0
  C  C404  1  0.76790000  0.76660000  0.87050000  1.0
  C  C405  1  0.72720000  0.81570000  0.91430000  1.0
  C  C406  1  0.67310000  0.76490000  0.84440000  1.0
  C  C407  1  0.85560000  0.79050000  0.82890000  1.0
  C  C408  1  0.82640000  0.68870000  0.89580000  1.0
  C  C409  1  0.75440000  0.64810000  0.93530000  1.0
  C  C410  1  0.28230000  0.05790000  0.86800000  1.0
  C  C411  1  0.29490000  0.99060000  0.84260000  1.0
  C  C412  1  0.31100000  0.11740000  0.82600000  1.0
  C  C413  1  0.35670000  0.03850000  0.91270000  1.0
  C  C414  1  0.16000000  0.08460000  0.89200000  1.0
  C  C415  1  0.12260000  0.15620000  0.91020000  1.0
  C  C416  1  0.88290000  0.06850000  0.66170000  1.0
  C  C417  1  0.91960000  0.12750000  0.62580000  1.0
  C  C418  1  0.89310000  0.91320000  0.93700000  1.0
  C  C419  1  0.00830000  0.88780000  0.95500000  1.0
  C  C420  1  0.83770000  0.76860000  0.69180000  1.0
  C  C421  1  0.84950000  0.70740000  0.66140000  1.0
  C  C422  1  0.38990000  0.81620000  0.92210000  1.0
  C  C423  1  0.33720000  0.77750000  0.97090000  1.0
  C  C424  1  0.44090000  0.22960000  0.87300000  1.0
  C  C425  1  0.39860000  0.28040000  0.91540000  1.0
  C  C426  1  0.27580000  0.01370000  0.70770000  1.0
  C  C427  1  0.17630000  0.05450000  0.68290000  1.0
  O  O428  1  0.58900000  0.42620000  0.30647000  1.0
  O  O429  1  0.61350000  0.48350000  0.39691000  1.0
  O  O430  1  0.66430000  0.54600000  0.29297000  1.0
  O  O431  1  0.80600000  0.41140000  0.32828000  1.0
  O  O432  1  0.57100000  0.36690000  0.22251000  1.0
  O  O433  1  0.78030000  0.35040000  0.24246000  1.0
  O  O434  1  0.65130000  0.48890000  0.20581000  1.0
  O  O435  1  0.73020000  0.28440000  0.34475000  1.0
  O  O436  1  0.54140000  0.35370000  0.41374000  1.0
  O  O437  1  0.52290000  0.29700000  0.32600000  1.0
  O  O438  1  0.45350000  0.55730000  0.27557000  1.0
  O  O439  1  0.40640000  0.49310000  0.37795000  1.0
  O  O440  1  0.37710000  0.43300000  0.29420000  1.0
  O  O441  1  0.00780000  0.37010000  0.24140000  1.0
  O  O442  1  0.88020000  0.47490000  0.22060000  1.0
  O  O443  1  0.88760000  0.18160000  0.26620000  1.0
  O  O444  1  0.71540000  0.21240000  0.24634000  1.0
  O  O445  1  0.30540000  0.40080000  0.48000000  1.0
  O  O446  1  0.31210000  0.36230000  0.40270000  1.0
  O  O447  1  0.48960000  0.70110000  0.29580000  1.0
  O  O448  1  0.46370000  0.62730000  0.37045000  1.0
  O  O449  1  0.46040000  0.61040000  0.15660000  1.0
  O  O450  1  0.42330000  0.50260000  0.18370000  1.0
  O  O451  1  0.41570000  0.57820000  0.47680000  1.0
  O  O452  1  0.37540000  0.01910000  0.20465000  1.0
  O  O453  1  0.32060000  0.96440000  0.12262000  1.0
  O  O454  1  0.16960000  0.00130000  0.21340000  1.0
  O  O455  1  0.36930000  0.88000000  0.21877000  1.0
  O  O456  1  0.45180000  0.07850000  0.27518000  1.0
  O  O457  1  0.24730000  0.05440000  0.29540000  1.0
  O  O458  1  0.44420000  0.93550000  0.29649000  1.0
  O  O459  1  0.32300000  0.10890000  0.10396000  1.0
  O  O460  1  0.38600000  0.16640000  0.18253000  1.0
  O  O461  1  0.18440000  0.13810000  0.19925000  1.0
  O  O462  1  0.59510000  0.04160000  0.18434000  1.0
  O  O463  1  0.57600000  0.90260000  0.20082000  1.0
  O  O464  1  0.52700000  0.98760000  0.10394000  1.0
  O  O465  1  0.05620000  0.99370000  0.33130000  1.0
  O  O466  1  0.22120000  0.90960000  0.31560000  1.0
  O  O467  1  0.19010000  0.06590000  0.03040000  1.0
  O  O468  1  0.10490000  0.08620000  0.11271000  1.0
  O  O469  1  0.25950000  0.20640000  0.28210000  1.0
  O  O470  1  0.08480000  0.20640000  0.30955000  1.0
  O  O471  1  0.55320000  0.14490000  0.06886000  1.0
  O  O472  1  0.62330000  0.19000000  0.12250000  1.0
  O  O473  1  0.56150000  0.74660000  0.17493000  1.0
  O  O474  1  0.52160000  0.83850000  0.10912000  1.0
  O  O475  1  0.66450000  0.94780000  0.28416000  1.0
  O  O476  1  0.69910000  0.05330000  0.27910000  1.0
  O  O477  1  0.50830000  0.08630000  0.98953000  1.0
  O  O478  1  0.41100000  0.57380000  0.69353000  1.0
  O  O479  1  0.38650000  0.51650000  0.60309000  1.0
  O  O480  1  0.33570000  0.45400000  0.70703000  1.0
  O  O481  1  0.19400000  0.58860000  0.67172000  1.0
  O  O482  1  0.42900000  0.63310000  0.77749000  1.0
  O  O483  1  0.21970000  0.64960000  0.75754000  1.0
  O  O484  1  0.34870000  0.51110000  0.79419000  1.0
  O  O485  1  0.26980000  0.71560000  0.65525000  1.0
  O  O486  1  0.45860000  0.64630000  0.58626000  1.0
  O  O487  1  0.47710000  0.70300000  0.67400000  1.0
  O  O488  1  0.54650000  0.44270000  0.72443000  1.0
  O  O489  1  0.59360000  0.50690000  0.62205000  1.0
  O  O490  1  0.62290000  0.56700000  0.70580000  1.0
  O  O491  1  0.99220000  0.62990000  0.75860000  1.0
  O  O492  1  0.11980000  0.52510000  0.77940000  1.0
  O  O493  1  0.11240000  0.81840000  0.73380000  1.0
  O  O494  1  0.28460000  0.78760000  0.75366000  1.0
  O  O495  1  0.69460000  0.59920000  0.52000000  1.0
  O  O496  1  0.68790000  0.63770000  0.59730000  1.0
  O  O497  1  0.51040000  0.29890000  0.70420000  1.0
  O  O498  1  0.53630000  0.37270000  0.62955000  1.0
  O  O499  1  0.53960000  0.38960000  0.84340000  1.0
  O  O500  1  0.57670000  0.49740000  0.81630000  1.0
  O  O501  1  0.58430000  0.42180000  0.52320000  1.0
  O  O502  1  0.62460000  0.98090000  0.79535000  1.0
  O  O503  1  0.67940000  0.03560000  0.87738000  1.0
  O  O504  1  0.83040000  0.99870000  0.78660000  1.0
  O  O505  1  0.63070000  0.12000000  0.78123000  1.0
  O  O506  1  0.54820000  0.92150000  0.72482000  1.0
  O  O507  1  0.75270000  0.94560000  0.70460000  1.0
  O  O508  1  0.55580000  0.06450000  0.70351000  1.0
  O  O509  1  0.67700000  0.89110000  0.89604000  1.0
  O  O510  1  0.61400000  0.83360000  0.81747000  1.0
  O  O511  1  0.81560000  0.86190000  0.80075000  1.0
  O  O512  1  0.40490000  0.95840000  0.81566000  1.0
  O  O513  1  0.42400000  0.09740000  0.79918000  1.0
  O  O514  1  0.47300000  0.01240000  0.89606000  1.0
  O  O515  1  0.94380000  0.00630000  0.66870000  1.0
  O  O516  1  0.77880000  0.09040000  0.68440000  1.0
  O  O517  1  0.80990000  0.93410000  0.96960000  1.0
  O  O518  1  0.89510000  0.91380000  0.88729000  1.0
  O  O519  1  0.74050000  0.79360000  0.71790000  1.0
  O  O520  1  0.91520000  0.79360000  0.69045000  1.0
  O  O521  1  0.44680000  0.85510000  0.93114000  1.0
  O  O522  1  0.37670000  0.81000000  0.87750000  1.0
  O  O523  1  0.43850000  0.25340000  0.82507000  1.0
  O  O524  1  0.47840000  0.16150000  0.89088000  1.0
  O  O525  1  0.33550000  0.05220000  0.71584000  1.0
  O  O526  1  0.30090000  0.94670000  0.72090000  1.0
  O  O527  1  0.49170000  0.91370000  0.01047000  1.0
