# generated using pymatgen
data_Zn4Mo12PH3C9O34
_symmetry_space_group_name_H-M   'P 1'
_cell_length_a   16.21400000
_cell_length_b   24.15600000
_cell_length_c   24.99200000
_cell_angle_alpha   90.00000000
_cell_angle_beta   90.00000000
_cell_angle_gamma   90.00000000
_symmetry_Int_Tables_number   1
_chemical_formula_structural   Zn4Mo12PH3C9O34
_chemical_formula_sum   'Zn16 Mo48 P4 H12 C36 O136'
_cell_volume   9788.50127693
_cell_formula_units_Z   4
loop_
 _symmetry_equiv_pos_site_id
 _symmetry_equiv_pos_as_xyz
  1  'x, y, z'
loop_
 _atom_site_type_symbol
 _atom_site_label
 _atom_site_symmetry_multiplicity
 _atom_site_fract_x
 _atom_site_fract_y
 _atom_site_fract_z
 _atom_site_occupancy
  Zn  Zn0  1  0.82111000  0.77128000  0.51190000  1.0
  Zn  Zn1  1  0.82111000  0.22872000  0.48810000  1.0
  Zn  Zn2  1  0.67889000  0.72872000  0.01190000  1.0
  Zn  Zn3  1  0.67889000  0.27128000  0.98810000  1.0
  Zn  Zn4  1  0.17889000  0.22872000  0.48810000  1.0
  Zn  Zn5  1  0.17889000  0.77128000  0.51190000  1.0
  Zn  Zn6  1  0.32111000  0.27128000  0.98810000  1.0
  Zn  Zn7  1  0.32111000  0.72872000  0.01190000  1.0
  Zn  Zn8  1  0.00000000  0.02108000  0.57203000  1.0
  Zn  Zn9  1  0.00000000  0.97892000  0.42797000  1.0
  Zn  Zn10  1  0.50000000  0.47892000  0.07203000  1.0
  Zn  Zn11  1  0.50000000  0.52108000  0.92797000  1.0
  Zn  Zn12  1  0.50000000  0.71933000  0.79240000  1.0
  Zn  Zn13  1  0.50000000  0.28067000  0.20760000  1.0
  Zn  Zn14  1  0.00000000  0.78067000  0.29240000  1.0
  Zn  Zn15  1  0.00000000  0.21933000  0.70760000  1.0
  Mo  Mo16  1  0.10803000  0.90842000  0.53799000  1.0
  Mo  Mo17  1  0.19071000  0.90762000  0.44787000  1.0
  Mo  Mo18  1  0.09852000  0.09399000  0.67598000  1.0
  Mo  Mo19  1  0.81225000  0.78512000  0.36592000  1.0
  Mo  Mo20  1  0.89081000  0.69663000  0.39691000  1.0
  Mo  Mo21  1  0.10803000  0.09158000  0.46201000  1.0
  Mo  Mo22  1  0.19071000  0.09238000  0.55213000  1.0
  Mo  Mo23  1  0.09852000  0.90601000  0.32402000  1.0
  Mo  Mo24  1  0.81225000  0.21488000  0.63408000  1.0
  Mo  Mo25  1  0.89081000  0.30337000  0.60309000  1.0
  Mo  Mo26  1  0.39197000  0.59158000  0.03799000  1.0
  Mo  Mo27  1  0.30929000  0.59238000  0.94787000  1.0
  Mo  Mo28  1  0.40148000  0.40601000  0.17598000  1.0
  Mo  Mo29  1  0.68775000  0.71488000  0.86592000  1.0
  Mo  Mo30  1  0.60919000  0.80337000  0.89691000  1.0
  Mo  Mo31  1  0.39197000  0.40842000  0.96201000  1.0
  Mo  Mo32  1  0.30929000  0.40762000  0.05213000  1.0
  Mo  Mo33  1  0.40148000  0.59399000  0.82402000  1.0
  Mo  Mo34  1  0.68775000  0.28512000  0.13408000  1.0
  Mo  Mo35  1  0.60919000  0.19663000  0.10309000  1.0
  Mo  Mo36  1  0.89197000  0.09158000  0.46201000  1.0
  Mo  Mo37  1  0.80929000  0.09238000  0.55213000  1.0
  Mo  Mo38  1  0.90148000  0.90601000  0.32402000  1.0
  Mo  Mo39  1  0.18775000  0.21488000  0.63408000  1.0
  Mo  Mo40  1  0.10919000  0.30337000  0.60309000  1.0
  Mo  Mo41  1  0.89197000  0.90842000  0.53799000  1.0
  Mo  Mo42  1  0.80929000  0.90762000  0.44787000  1.0
  Mo  Mo43  1  0.90148000  0.09399000  0.67598000  1.0
  Mo  Mo44  1  0.18775000  0.78512000  0.36592000  1.0
  Mo  Mo45  1  0.10919000  0.69663000  0.39691000  1.0
  Mo  Mo46  1  0.60803000  0.40842000  0.96201000  1.0
  Mo  Mo47  1  0.69071000  0.40762000  0.05213000  1.0
  Mo  Mo48  1  0.59852000  0.59399000  0.82402000  1.0
  Mo  Mo49  1  0.31225000  0.28512000  0.13408000  1.0
  Mo  Mo50  1  0.39081000  0.19663000  0.10309000  1.0
  Mo  Mo51  1  0.60803000  0.59158000  0.03799000  1.0
  Mo  Mo52  1  0.69071000  0.59238000  0.94787000  1.0
  Mo  Mo53  1  0.59852000  0.40601000  0.17598000  1.0
  Mo  Mo54  1  0.31225000  0.71488000  0.86592000  1.0
  Mo  Mo55  1  0.39081000  0.80337000  0.89691000  1.0
  Mo  Mo56  1  0.00000000  0.79692000  0.58587000  1.0
  Mo  Mo57  1  0.00000000  0.68798000  0.51411000  1.0
  Mo  Mo58  1  0.00000000  0.20308000  0.41413000  1.0
  Mo  Mo59  1  0.00000000  0.31202000  0.48589000  1.0
  Mo  Mo60  1  0.50000000  0.70308000  0.08587000  1.0
  Mo  Mo61  1  0.50000000  0.81202000  0.01411000  1.0
  Mo  Mo62  1  0.50000000  0.29692000  0.91413000  1.0
  Mo  Mo63  1  0.50000000  0.18798000  0.98589000  1.0
  P  P64  1  0.00000000  0.82264000  0.43692000  1.0
  P  P65  1  0.00000000  0.17736000  0.56308000  1.0
  P  P66  1  0.50000000  0.67736000  0.93692000  1.0
  P  P67  1  0.50000000  0.32264000  0.06308000  1.0
  H  H68  1  0.62460000  0.74130000  0.62250000  1.0
  H  H69  1  0.62460000  0.25870000  0.37750000  1.0
  H  H70  1  0.87540000  0.75870000  0.12250000  1.0
  H  H71  1  0.87540000  0.24130000  0.87750000  1.0
  H  H72  1  0.37540000  0.25870000  0.37750000  1.0
  H  H73  1  0.37540000  0.74130000  0.62250000  1.0
  H  H74  1  0.12460000  0.24130000  0.87750000  1.0
  H  H75  1  0.12460000  0.75870000  0.12250000  1.0
  H  H76  1  0.50000000  0.77300000  0.48920000  1.0
  H  H77  1  0.50000000  0.22700000  0.51080000  1.0
  H  H78  1  0.00000000  0.72700000  0.98920000  1.0
  H  H79  1  0.00000000  0.27300000  0.01080000  1.0
  C  C80  1  0.57530000  0.74790000  0.60470000  1.0
  C  C81  1  0.57620000  0.75950000  0.55130000  1.0
  C  C82  1  0.65220000  0.76840000  0.52210000  1.0
  C  C83  1  0.57530000  0.25210000  0.39530000  1.0
  C  C84  1  0.57620000  0.24050000  0.44870000  1.0
  C  C85  1  0.65220000  0.23160000  0.47790000  1.0
  C  C86  1  0.92470000  0.75210000  0.10470000  1.0
  C  C87  1  0.92380000  0.74050000  0.05130000  1.0
  C  C88  1  0.84780000  0.73160000  0.02210000  1.0
  C  C89  1  0.92470000  0.24790000  0.89530000  1.0
  C  C90  1  0.92380000  0.25950000  0.94870000  1.0
  C  C91  1  0.84780000  0.26840000  0.97790000  1.0
  C  C92  1  0.42470000  0.25210000  0.39530000  1.0
  C  C93  1  0.42380000  0.24050000  0.44870000  1.0
  C  C94  1  0.34780000  0.23160000  0.47790000  1.0
  C  C95  1  0.42470000  0.74790000  0.60470000  1.0
  C  C96  1  0.42380000  0.75950000  0.55130000  1.0
  C  C97  1  0.34780000  0.76840000  0.52210000  1.0
  C  C98  1  0.07530000  0.24790000  0.89530000  1.0
  C  C99  1  0.07620000  0.25950000  0.94870000  1.0
  C  C100  1  0.15220000  0.26840000  0.97790000  1.0
  C  C101  1  0.07530000  0.75210000  0.10470000  1.0
  C  C102  1  0.07620000  0.74050000  0.05130000  1.0
  C  C103  1  0.15220000  0.73160000  0.02210000  1.0
  C  C104  1  0.50000000  0.76510000  0.52560000  1.0
  C  C105  1  0.50000000  0.74580000  0.63310000  1.0
  C  C106  1  0.50000000  0.73400000  0.69370000  1.0
  C  C107  1  0.50000000  0.23490000  0.47440000  1.0
  C  C108  1  0.50000000  0.25420000  0.36690000  1.0
  C  C109  1  0.50000000  0.26600000  0.30630000  1.0
  C  C110  1  0.00000000  0.73490000  0.02560000  1.0
  C  C111  1  0.00000000  0.75420000  0.13310000  1.0
  C  C112  1  0.00000000  0.76600000  0.19370000  1.0
  C  C113  1  0.00000000  0.26510000  0.97440000  1.0
  C  C114  1  0.00000000  0.24580000  0.86690000  1.0
  C  C115  1  0.00000000  0.23400000  0.80630000  1.0
  O  O116  1  0.09220000  0.94710000  0.46970000  1.0
  O  O117  1  0.71760000  0.75260000  0.54570000  1.0
  O  O118  1  0.18150000  0.85260000  0.50410000  1.0
  O  O119  1  0.92480000  0.74670000  0.54420000  1.0
  O  O120  1  0.81810000  0.74930000  0.43590000  1.0
  O  O121  1  0.07820000  0.84260000  0.40850000  1.0
  O  O122  1  0.90850000  0.74890000  0.33550000  1.0
  O  O123  1  0.08350000  0.84650000  0.59000000  1.0
  O  O124  1  0.16500000  0.93600000  0.37590000  1.0
  O  O125  1  0.25720000  0.84410000  0.40840000  1.0
  O  O126  1  0.83850000  0.84510000  0.31260000  1.0
  O  O127  1  0.08540000  0.66780000  0.47010000  1.0
  O  O128  1  0.65280000  0.79000000  0.47660000  1.0
  O  O129  1  0.43650000  0.73170000  0.71930000  1.0
  O  O130  1  0.09220000  0.05290000  0.53030000  1.0
  O  O131  1  0.71760000  0.24740000  0.45430000  1.0
  O  O132  1  0.18150000  0.14740000  0.49590000  1.0
  O  O133  1  0.92480000  0.25330000  0.45580000  1.0
  O  O134  1  0.81810000  0.25070000  0.56410000  1.0
  O  O135  1  0.07820000  0.15740000  0.59150000  1.0
  O  O136  1  0.90850000  0.25110000  0.66450000  1.0
  O  O137  1  0.08350000  0.15350000  0.41000000  1.0
  O  O138  1  0.16500000  0.06400000  0.62410000  1.0
  O  O139  1  0.25720000  0.15590000  0.59160000  1.0
  O  O140  1  0.83850000  0.15490000  0.68740000  1.0
  O  O141  1  0.08540000  0.33220000  0.52990000  1.0
  O  O142  1  0.65280000  0.21000000  0.52340000  1.0
  O  O143  1  0.43650000  0.26830000  0.28070000  1.0
  O  O144  1  0.40780000  0.55290000  0.96970000  1.0
  O  O145  1  0.78240000  0.74740000  0.04570000  1.0
  O  O146  1  0.31850000  0.64740000  0.00410000  1.0
  O  O147  1  0.57520000  0.75330000  0.04420000  1.0
  O  O148  1  0.68190000  0.75070000  0.93590000  1.0
  O  O149  1  0.42180000  0.65740000  0.90850000  1.0
  O  O150  1  0.59150000  0.75110000  0.83550000  1.0
  O  O151  1  0.41650000  0.65350000  0.09000000  1.0
  O  O152  1  0.33500000  0.56400000  0.87590000  1.0
  O  O153  1  0.24280000  0.65590000  0.90840000  1.0
  O  O154  1  0.66150000  0.65490000  0.81260000  1.0
  O  O155  1  0.41460000  0.83220000  0.97010000  1.0
  O  O156  1  0.84720000  0.71000000  0.97660000  1.0
  O  O157  1  0.06350000  0.76830000  0.21930000  1.0
  O  O158  1  0.40780000  0.44710000  0.03030000  1.0
  O  O159  1  0.78240000  0.25260000  0.95430000  1.0
  O  O160  1  0.31850000  0.35260000  0.99590000  1.0
  O  O161  1  0.57520000  0.24670000  0.95580000  1.0
  O  O162  1  0.68190000  0.24930000  0.06410000  1.0
  O  O163  1  0.42180000  0.34260000  0.09150000  1.0
  O  O164  1  0.59150000  0.24890000  0.16450000  1.0
  O  O165  1  0.41650000  0.34650000  0.91000000  1.0
  O  O166  1  0.33500000  0.43600000  0.12410000  1.0
  O  O167  1  0.24280000  0.34410000  0.09160000  1.0
  O  O168  1  0.66150000  0.34510000  0.18740000  1.0
  O  O169  1  0.41460000  0.16780000  0.02990000  1.0
  O  O170  1  0.84720000  0.29000000  0.02340000  1.0
  O  O171  1  0.06350000  0.23170000  0.78070000  1.0
  O  O172  1  0.90780000  0.05290000  0.53030000  1.0
  O  O173  1  0.28240000  0.24740000  0.45430000  1.0
  O  O174  1  0.81850000  0.14740000  0.49590000  1.0
  O  O175  1  0.07520000  0.25330000  0.45580000  1.0
  O  O176  1  0.18190000  0.25070000  0.56410000  1.0
  O  O177  1  0.92180000  0.15740000  0.59150000  1.0
  O  O178  1  0.09150000  0.25110000  0.66450000  1.0
  O  O179  1  0.91650000  0.15350000  0.41000000  1.0
  O  O180  1  0.83500000  0.06400000  0.62410000  1.0
  O  O181  1  0.74280000  0.15590000  0.59160000  1.0
  O  O182  1  0.16150000  0.15490000  0.68740000  1.0
  O  O183  1  0.91460000  0.33220000  0.52990000  1.0
  O  O184  1  0.34720000  0.21000000  0.52340000  1.0
  O  O185  1  0.56350000  0.26830000  0.28070000  1.0
  O  O186  1  0.90780000  0.94710000  0.46970000  1.0
  O  O187  1  0.28240000  0.75260000  0.54570000  1.0
  O  O188  1  0.81850000  0.85260000  0.50410000  1.0
  O  O189  1  0.07520000  0.74670000  0.54420000  1.0
  O  O190  1  0.18190000  0.74930000  0.43590000  1.0
  O  O191  1  0.92180000  0.84260000  0.40850000  1.0
  O  O192  1  0.09150000  0.74890000  0.33550000  1.0
  O  O193  1  0.91650000  0.84650000  0.59000000  1.0
  O  O194  1  0.83500000  0.93600000  0.37590000  1.0
  O  O195  1  0.74280000  0.84410000  0.40840000  1.0
  O  O196  1  0.16150000  0.84510000  0.31260000  1.0
  O  O197  1  0.91460000  0.66780000  0.47010000  1.0
  O  O198  1  0.34720000  0.79000000  0.47660000  1.0
  O  O199  1  0.56350000  0.73170000  0.71930000  1.0
  O  O200  1  0.59220000  0.44710000  0.03030000  1.0
  O  O201  1  0.21760000  0.25260000  0.95430000  1.0
  O  O202  1  0.68150000  0.35260000  0.99590000  1.0
  O  O203  1  0.42480000  0.24670000  0.95580000  1.0
  O  O204  1  0.31810000  0.24930000  0.06410000  1.0
  O  O205  1  0.57820000  0.34260000  0.09150000  1.0
  O  O206  1  0.40850000  0.24890000  0.16450000  1.0
  O  O207  1  0.58350000  0.34650000  0.91000000  1.0
  O  O208  1  0.66500000  0.43600000  0.12410000  1.0
  O  O209  1  0.75720000  0.34410000  0.09160000  1.0
  O  O210  1  0.33850000  0.34510000  0.18740000  1.0
  O  O211  1  0.58540000  0.16780000  0.02990000  1.0
  O  O212  1  0.15280000  0.29000000  0.02340000  1.0
  O  O213  1  0.93650000  0.23170000  0.78070000  1.0
  O  O214  1  0.59220000  0.55290000  0.96970000  1.0
  O  O215  1  0.21760000  0.74740000  0.04570000  1.0
  O  O216  1  0.68150000  0.64740000  0.00410000  1.0
  O  O217  1  0.42480000  0.75330000  0.04420000  1.0
  O  O218  1  0.31810000  0.75070000  0.93590000  1.0
  O  O219  1  0.57820000  0.65740000  0.90850000  1.0
  O  O220  1  0.40850000  0.75110000  0.83550000  1.0
  O  O221  1  0.58350000  0.65350000  0.09000000  1.0
  O  O222  1  0.66500000  0.56400000  0.87590000  1.0
  O  O223  1  0.75720000  0.65590000  0.90840000  1.0
  O  O224  1  0.33850000  0.65490000  0.81260000  1.0
  O  O225  1  0.58540000  0.83220000  0.97010000  1.0
  O  O226  1  0.15280000  0.71000000  0.97660000  1.0
  O  O227  1  0.93650000  0.76830000  0.21930000  1.0
  O  O228  1  0.00000000  0.94010000  0.56160000  1.0
  O  O229  1  0.00000000  0.05560000  0.64230000  1.0
  O  O230  1  0.00000000  0.75750000  0.43540000  1.0
  O  O231  1  0.00000000  0.84540000  0.49500000  1.0
  O  O232  1  0.00000000  0.66050000  0.37340000  1.0
  O  O233  1  0.00000000  0.05990000  0.43840000  1.0
  O  O234  1  0.00000000  0.94440000  0.35770000  1.0
  O  O235  1  0.00000000  0.24250000  0.56460000  1.0
  O  O236  1  0.00000000  0.15460000  0.50500000  1.0
  O  O237  1  0.00000000  0.33950000  0.62660000  1.0
  O  O238  1  0.50000000  0.55990000  0.06160000  1.0
  O  O239  1  0.50000000  0.44440000  0.14230000  1.0
  O  O240  1  0.50000000  0.74250000  0.93540000  1.0
  O  O241  1  0.50000000  0.65460000  0.99500000  1.0
  O  O242  1  0.50000000  0.83950000  0.87340000  1.0
  O  O243  1  0.50000000  0.44010000  0.93840000  1.0
  O  O244  1  0.50000000  0.55560000  0.85770000  1.0
  O  O245  1  0.50000000  0.25750000  0.06460000  1.0
  O  O246  1  0.50000000  0.34540000  0.00500000  1.0
  O  O247  1  0.50000000  0.16050000  0.12660000  1.0
  O  O248  1  0.50000000  0.63650000  0.80230000  1.0
  O  O249  1  0.50000000  0.36350000  0.19770000  1.0
  O  O250  1  0.00000000  0.86350000  0.30230000  1.0
  O  O251  1  0.00000000  0.13650000  0.69770000  1.0
