# generated using pymatgen
data_Zr3H22C29O16
_symmetry_space_group_name_H-M   'P 1'
_cell_length_a   25.91460000
_cell_length_b   22.80970000
_cell_length_c   19.70650000
_cell_angle_alpha   90.00000000
_cell_angle_beta   90.00000000
_cell_angle_gamma   90.00000000
_symmetry_Int_Tables_number   1
_chemical_formula_structural   Zr3H22C29O16
_chemical_formula_sum   'Zr24 H176 C232 O128'
_cell_volume   11648.59593455
_cell_formula_units_Z   8
loop_
 _symmetry_equiv_pos_site_id
 _symmetry_equiv_pos_as_xyz
  1  'x, y, z'
loop_
 _atom_site_type_symbol
 _atom_site_label
 _atom_site_symmetry_multiplicity
 _atom_site_fract_x
 _atom_site_fract_y
 _atom_site_fract_z
 _atom_site_occupancy
  Zr  Zr0  1  0.99833000  0.07276000  0.08163000  1.0
  Zr  Zr1  1  0.99832000  0.92716000  0.08167000  1.0
  Zr  Zr2  1  0.99828000  0.07259000  0.91025000  1.0
  Zr  Zr3  1  0.99829000  0.92737000  0.91022000  1.0
  Zr  Zr4  1  0.07720000  0.00003000  0.99612000  1.0
  Zr  Zr5  1  0.91968000  0.00000000  0.99608000  1.0
  Zr  Zr6  1  0.00075000  0.57385000  0.58242000  1.0
  Zr  Zr7  1  0.00080000  0.43002000  0.58255000  1.0
  Zr  Zr8  1  0.00085000  0.57377000  0.41001000  1.0
  Zr  Zr9  1  0.00089000  0.42995000  0.41004000  1.0
  Zr  Zr10  1  0.07933000  0.50182000  0.49635000  1.0
  Zr  Zr11  1  0.92248000  0.50177000  0.49618000  1.0
  Zr  Zr12  1  0.43696000  0.99936000  0.41055000  1.0
  Zr  Zr13  1  0.56264000  0.99928000  0.41118000  1.0
  Zr  Zr14  1  0.43654000  0.99942000  0.58302000  1.0
  Zr  Zr15  1  0.56221000  0.99937000  0.58358000  1.0
  Zr  Zr16  1  0.49961000  0.90938000  0.49709000  1.0
  Zr  Zr17  1  0.49963000  0.08912000  0.49700000  1.0
  Zr  Zr18  1  0.49876000  0.57017000  0.08346000  1.0
  Zr  Zr19  1  0.49875000  0.42518000  0.08346000  1.0
  Zr  Zr20  1  0.49877000  0.57015000  0.91081000  1.0
  Zr  Zr21  1  0.49875000  0.42517000  0.91084000  1.0
  Zr  Zr22  1  0.57640000  0.49762000  0.99714000  1.0
  Zr  Zr23  1  0.42137000  0.49762000  0.99714000  1.0
  H  H24  1  0.16877000  0.27370000  0.17279000  1.0
  H  H25  1  0.11243000  0.20810000  0.11112000  1.0
  H  H26  1  0.20999000  0.06164000  0.16172000  1.0
  H  H27  1  0.26790000  0.12792000  0.22414000  1.0
  H  H28  1  0.22863000  0.36547000  0.19730000  1.0
  H  H29  1  0.28545000  0.42862000  0.13149000  1.0
  H  H30  1  0.38451000  0.28098000  0.09026000  1.0
  H  H31  1  0.32899000  0.21804000  0.15815000  1.0
  H  H32  1  0.35922000  0.28608000  0.27057000  1.0
  H  H33  1  0.42473000  0.23578000  0.33738000  1.0
  H  H34  1  0.30804000  0.11945000  0.41550000  1.0
  H  H35  1  0.24308000  0.16613000  0.34471000  1.0
  H  H36  1  0.15766000  0.22834000  0.30542000  1.0
  H  H37  1  0.10200000  0.29444000  0.36537000  1.0
  H  H38  1  0.22317000  0.42385000  0.37508000  1.0
  H  H39  1  0.28070000  0.35582000  0.31475000  1.0
  H  H40  1  0.67142000  0.77358000  0.15166000  1.0
  H  H41  1  0.61543000  0.70695000  0.08958000  1.0
  H  H42  1  0.71119000  0.56078000  0.14724000  1.0
  H  H43  1  0.76884000  0.62748000  0.20738000  1.0
  H  H44  1  0.72876000  0.86860000  0.21786000  1.0
  H  H45  1  0.78608000  0.93394000  0.15356000  1.0
  H  H46  1  0.88393000  0.78714000  0.10529000  1.0
  H  H47  1  0.82818000  0.72235000  0.16935000  1.0
  H  H48  1  0.84127000  0.77431000  0.29921000  1.0
  H  H49  1  0.89865000  0.71316000  0.36320000  1.0
  H  H50  1  0.77895000  0.58329000  0.38754000  1.0
  H  H51  1  0.71978000  0.64637000  0.32336000  1.0
  H  H52  1  0.63889000  0.70979000  0.26837000  1.0
  H  H53  1  0.57184000  0.76088000  0.33147000  1.0
  H  H54  1  0.68581000  0.88190000  0.40678000  1.0
  H  H55  1  0.75233000  0.83458000  0.33923000  1.0
  H  H56  1  0.64075000  0.28876000  0.71793000  1.0
  H  H57  1  0.57548000  0.23733000  0.65211000  1.0
  H  H58  1  0.69189000  0.11755000  0.58043000  1.0
  H  H59  1  0.75657000  0.16545000  0.65048000  1.0
  H  H60  1  0.72052000  0.35457000  0.66894000  1.0
  H  H61  1  0.77906000  0.41909000  0.60568000  1.0
  H  H62  1  0.89977000  0.29005000  0.62742000  1.0
  H  H63  1  0.84307000  0.22762000  0.69085000  1.0
  H  H64  1  0.82906000  0.27820000  0.82111000  1.0
  H  H65  1  0.88391000  0.21423000  0.88749000  1.0
  H  H66  1  0.78738000  0.06657000  0.83805000  1.0
  H  H67  1  0.73084000  0.13118000  0.77158000  1.0
  H  H68  1  0.67100000  0.22375000  0.83439000  1.0
  H  H69  1  0.61480000  0.28847000  0.89873000  1.0
  H  H70  1  0.71134000  0.43610000  0.84866000  1.0
  H  H71  1  0.76914000  0.37124000  0.78618000  1.0
  H  H72  1  0.15947000  0.77274000  0.69179000  1.0
  H  H73  1  0.10309000  0.70843000  0.63052000  1.0
  H  H74  1  0.22305000  0.57781000  0.61738000  1.0
  H  H75  1  0.28129000  0.64394000  0.67938000  1.0
  H  H76  1  0.24683000  0.83259000  0.65230000  1.0
  H  H77  1  0.31321000  0.87896000  0.58361000  1.0
  H  H78  1  0.42817000  0.76238000  0.66542000  1.0
  H  H79  1  0.36129000  0.71208000  0.72985000  1.0
  H  H80  1  0.32855000  0.77868000  0.84246000  1.0
  H  H81  1  0.38364000  0.71423000  0.90911000  1.0
  H  H82  1  0.28602000  0.56715000  0.86024000  1.0
  H  H83  1  0.22954000  0.63172000  0.79574000  1.0
  H  H84  1  0.17032000  0.72514000  0.82427000  1.0
  H  H85  1  0.11326000  0.79106000  0.88435000  1.0
  H  H86  1  0.21099000  0.93738000  0.83372000  1.0
  H  H87  1  0.26961000  0.87082000  0.77297000  1.0
  H  H88  1  0.26787000  0.12844000  0.76895000  1.0
  H  H89  1  0.21007000  0.06223000  0.83159000  1.0
  H  H90  1  0.11305000  0.20889000  0.88327000  1.0
  H  H91  1  0.16921000  0.27441000  0.82120000  1.0
  H  H92  1  0.32903000  0.21846000  0.83506000  1.0
  H  H93  1  0.38441000  0.28114000  0.90345000  1.0
  H  H94  1  0.28569000  0.42906000  0.86213000  1.0
  H  H95  1  0.22899000  0.36618000  0.79584000  1.0
  H  H96  1  0.28063000  0.35622000  0.67826000  1.0
  H  H97  1  0.22305000  0.42406000  0.61770000  1.0
  H  H98  1  0.10181000  0.29479000  0.62846000  1.0
  H  H99  1  0.15750000  0.22890000  0.68860000  1.0
  H  H100  1  0.24274000  0.16688000  0.64854000  1.0
  H  H101  1  0.30745000  0.11998000  0.57757000  1.0
  H  H102  1  0.42461000  0.23575000  0.65560000  1.0
  H  H103  1  0.35936000  0.28626000  0.72263000  1.0
  H  H104  1  0.76849000  0.62661000  0.78566000  1.0
  H  H105  1  0.71090000  0.56018000  0.84630000  1.0
  H  H106  1  0.61571000  0.70673000  0.90432000  1.0
  H  H107  1  0.67160000  0.77309000  0.84174000  1.0
  H  H108  1  0.82811000  0.72116000  0.82381000  1.0
  H  H109  1  0.88387000  0.78553000  0.88837000  1.0
  H  H110  1  0.78641000  0.93279000  0.84049000  1.0
  H  H111  1  0.72905000  0.86784000  0.77576000  1.0
  H  H112  1  0.75236000  0.83398000  0.65423000  1.0
  H  H113  1  0.68592000  0.88133000  0.58660000  1.0
  H  H114  1  0.57180000  0.76048000  0.66192000  1.0
  H  H115  1  0.63879000  0.70931000  0.72503000  1.0
  H  H116  1  0.71973000  0.64565000  0.66989000  1.0
  H  H117  1  0.77886000  0.58281000  0.60531000  1.0
  H  H118  1  0.89838000  0.71293000  0.62943000  1.0
  H  H119  1  0.84107000  0.77379000  0.69389000  1.0
  H  H120  1  0.75621000  0.16496000  0.34313000  1.0
  H  H121  1  0.69125000  0.11735000  0.41305000  1.0
  H  H122  1  0.57527000  0.23735000  0.34075000  1.0
  H  H123  1  0.64079000  0.28852000  0.27507000  1.0
  H  H124  1  0.84322000  0.22709000  0.30226000  1.0
  H  H125  1  0.90001000  0.28979000  0.36521000  1.0
  H  H126  1  0.77912000  0.41858000  0.38724000  1.0
  H  H127  1  0.72054000  0.35385000  0.32437000  1.0
  H  H128  1  0.76946000  0.37047000  0.20699000  1.0
  H  H129  1  0.71156000  0.43562000  0.14506000  1.0
  H  H130  1  0.61466000  0.28831000  0.09494000  1.0
  H  H131  1  0.67098000  0.22329000  0.15872000  1.0
  H  H132  1  0.73054000  0.13041000  0.22220000  1.0
  H  H133  1  0.78701000  0.06538000  0.15610000  1.0
  H  H134  1  0.88392000  0.21257000  0.10615000  1.0
  H  H135  1  0.82912000  0.27697000  0.17206000  1.0
  H  H136  1  0.28140000  0.64440000  0.31376000  1.0
  H  H137  1  0.22320000  0.57802000  0.37546000  1.0
  H  H138  1  0.10321000  0.70865000  0.36304000  1.0
  H  H139  1  0.15956000  0.77322000  0.30205000  1.0
  H  H140  1  0.36118000  0.71233000  0.26350000  1.0
  H  H141  1  0.42823000  0.76239000  0.32787000  1.0
  H  H142  1  0.31365000  0.87943000  0.40969000  1.0
  H  H143  1  0.24711000  0.83332000  0.34102000  1.0
  H  H144  1  0.26957000  0.87140000  0.22028000  1.0
  H  H145  1  0.21087000  0.93797000  0.15964000  1.0
  H  H146  1  0.11285000  0.79173000  0.10972000  1.0
  H  H147  1  0.17004000  0.72578000  0.16956000  1.0
  H  H148  1  0.22923000  0.63244000  0.19745000  1.0
  H  H149  1  0.28579000  0.56763000  0.13337000  1.0
  H  H150  1  0.38380000  0.71442000  0.08467000  1.0
  H  H151  1  0.32861000  0.77910000  0.15088000  1.0
  H  H152  1  0.92832000  0.99996000  0.13338000  1.0
  H  H153  1  0.06517000  0.88061000  0.99647000  1.0
  H  H154  1  0.92743000  0.99993000  0.85917000  1.0
  H  H155  1  0.06521000  0.11938000  0.99656000  1.0
  H  H156  1  0.97976000  0.81886000  0.05078000  1.0
  H  H157  1  0.00599000  0.81806000  0.94198000  1.0
  H  H158  1  0.02750000  0.94663000  0.78603000  1.0
  H  H159  1  0.02735000  0.05275000  0.78608000  1.0
  H  H160  1  0.00551000  0.18180000  0.94268000  1.0
  H  H161  1  0.97993000  0.18123000  0.05155000  1.0
  H  H162  1  0.99542000  0.10370000  0.20698000  1.0
  H  H163  1  0.02466000  0.95335000  0.20514000  1.0
  H  H164  1  0.92888000  0.50187000  0.63290000  1.0
  H  H165  1  0.06518000  0.38150000  0.49642000  1.0
  H  H166  1  0.92895000  0.50177000  0.35951000  1.0
  H  H167  1  0.06531000  0.62215000  0.49632000  1.0
  H  H168  1  0.99875000  0.32006000  0.55312000  1.0
  H  H169  1  0.99957000  0.31996000  0.43933000  1.0
  H  H170  1  0.02979000  0.44768000  0.28560000  1.0
  H  H171  1  0.02976000  0.55625000  0.28556000  1.0
  H  H172  1  0.99970000  0.68380000  0.43906000  1.0
  H  H173  1  0.99783000  0.68372000  0.55272000  1.0
  H  H174  1  0.02948000  0.55613000  0.70693000  1.0
  H  H175  1  0.02953000  0.44793000  0.70703000  1.0
  H  H176  1  0.50001000  0.08146000  0.36022000  1.0
  H  H177  1  0.60540000  0.92666000  0.49707000  1.0
  H  H178  1  0.49932000  0.08192000  0.63352000  1.0
  H  H179  1  0.39381000  0.92674000  0.49659000  1.0
  H  H180  1  0.65902000  0.00386000  0.44331000  1.0
  H  H181  1  0.65950000  0.99609000  0.55665000  1.0
  H  H182  1  0.54726000  0.96695000  0.70827000  1.0
  H  H183  1  0.45128000  0.96710000  0.70781000  1.0
  H  H184  1  0.33960000  0.99873000  0.55383000  1.0
  H  H185  1  0.34006000  0.00025000  0.43991000  1.0
  H  H186  1  0.45497000  0.96695000  0.28652000  1.0
  H  H187  1  0.58736000  0.00513000  0.28518000  1.0
  H  H188  1  0.42702000  0.49771000  0.13385000  1.0
  H  H189  1  0.56342000  0.37712000  0.99710000  1.0
  H  H190  1  0.42707000  0.49769000  0.86040000  1.0
  H  H191  1  0.56336000  0.61819000  0.99707000  1.0
  H  H192  1  0.49957000  0.31506000  0.05537000  1.0
  H  H193  1  0.49917000  0.31511000  0.93927000  1.0
  H  H194  1  0.52732000  0.44253000  0.78650000  1.0
  H  H195  1  0.52738000  0.55317000  0.78645000  1.0
  H  H196  1  0.49942000  0.68023000  0.93905000  1.0
  H  H197  1  0.49977000  0.68030000  0.05546000  1.0
  H  H198  1  0.52742000  0.55335000  0.20780000  1.0
  H  H199  1  0.52737000  0.44240000  0.20779000  1.0
  C  C200  1  0.22135000  0.20638000  0.20841000  1.0
  C  C201  1  0.17837000  0.22751000  0.17187000  1.0
  C  C202  1  0.14613000  0.18989000  0.13595000  1.0
  C  C203  1  0.15619000  0.12958000  0.13274000  1.0
  C  C204  1  0.20100000  0.10796000  0.16415000  1.0
  C  C205  1  0.23350000  0.14603000  0.20133000  1.0
  C  C206  1  0.25463000  0.25181000  0.24825000  1.0
  C  C207  1  0.27900000  0.28870000  0.19151000  1.0
  C  C208  1  0.29648000  0.22520000  0.29507000  1.0
  C  C209  1  0.22178000  0.28953000  0.29698000  1.0
  C  C210  1  0.26330000  0.34659000  0.17605000  1.0
  C  C211  1  0.29482000  0.38255000  0.13678000  1.0
  C  C212  1  0.34071000  0.35997000  0.11047000  1.0
  C  C213  1  0.35045000  0.29965000  0.11375000  1.0
  C  C214  1  0.31884000  0.26385000  0.15248000  1.0
  C  C215  1  0.34748000  0.24812000  0.29951000  1.0
  C  C216  1  0.38501000  0.22120000  0.34014000  1.0
  C  C217  1  0.37160000  0.17305000  0.38000000  1.0
  C  C218  1  0.31951000  0.15590000  0.38359000  1.0
  C  C219  1  0.28249000  0.18174000  0.34205000  1.0
  C  C220  1  0.17257000  0.27128000  0.31797000  1.0
  C  C221  1  0.14063000  0.30923000  0.35325000  1.0
  C  C222  1  0.15719000  0.36604000  0.37039000  1.0
  C  C223  1  0.20879000  0.38133000  0.35959000  1.0
  C  C224  1  0.24131000  0.34253000  0.32467000  1.0
  C  C225  1  0.72007000  0.70475000  0.19274000  1.0
  C  C226  1  0.68092000  0.72734000  0.15075000  1.0
  C  C227  1  0.64886000  0.68942000  0.11566000  1.0
  C  C228  1  0.65751000  0.62893000  0.11874000  1.0
  C  C229  1  0.70265000  0.60726000  0.14807000  1.0
  C  C230  1  0.73466000  0.64544000  0.18386000  1.0
  C  C231  1  0.74354000  0.74545000  0.24662000  1.0
  C  C232  1  0.77553000  0.79007000  0.20369000  1.0
  C  C233  1  0.77766000  0.71188000  0.29789000  1.0
  C  C234  1  0.70056000  0.77272000  0.29126000  1.0
  C  C235  1  0.76301000  0.85015000  0.19506000  1.0
  C  C236  1  0.79515000  0.88767000  0.15667000  1.0
  C  C237  1  0.83996000  0.86580000  0.12545000  1.0
  C  C238  1  0.85017000  0.80556000  0.12977000  1.0
  C  C239  1  0.81828000  0.76843000  0.16702000  1.0
  C  C240  1  0.82700000  0.73218000  0.31594000  1.0
  C  C241  1  0.85994000  0.69719000  0.35378000  1.0
  C  C242  1  0.84431000  0.64144000  0.37625000  1.0
  C  C243  1  0.79266000  0.62491000  0.36821000  1.0
  C  C244  1  0.75916000  0.66083000  0.33097000  1.0
  C  C245  1  0.64975000  0.74901000  0.29555000  1.0
  C  C246  1  0.61126000  0.77648000  0.33410000  1.0
  C  C247  1  0.62351000  0.82600000  0.37221000  1.0
  C  C248  1  0.67525000  0.84442000  0.37595000  1.0
  C  C249  1  0.71320000  0.81807000  0.33640000  1.0
  C  C250  1  0.70327000  0.22654000  0.69687000  1.0
  C  C251  1  0.65247000  0.24982000  0.69078000  1.0
  C  C252  1  0.61507000  0.22217000  0.65065000  1.0
  C  C253  1  0.62841000  0.17275000  0.61294000  1.0
  C  C254  1  0.68040000  0.15493000  0.61086000  1.0
  C  C255  1  0.71727000  0.18153000  0.65193000  1.0
  C  C256  1  0.74500000  0.25426000  0.74304000  1.0
  C  C257  1  0.77897000  0.28930000  0.69306000  1.0
  C  C258  1  0.77715000  0.20998000  0.78614000  1.0
  C  C259  1  0.72017000  0.29368000  0.79705000  1.0
  C  C260  1  0.76001000  0.34066000  0.66104000  1.0
  C  C261  1  0.79312000  0.37737000  0.62427000  1.0
  C  C262  1  0.84482000  0.36138000  0.61568000  1.0
  C  C263  1  0.86097000  0.30554000  0.63727000  1.0
  C  C264  1  0.82845000  0.26978000  0.67473000  1.0
  C  C265  1  0.81931000  0.23208000  0.82360000  1.0
  C  C266  1  0.85061000  0.19545000  0.86232000  1.0
  C  C267  1  0.84047000  0.13521000  0.86715000  1.0
  C  C268  1  0.79632000  0.11287000  0.83478000  1.0
  C  C269  1  0.76470000  0.14992000  0.79507000  1.0
  C  C270  1  0.68052000  0.26993000  0.83729000  1.0
  C  C271  1  0.64842000  0.30675000  0.87379000  1.0
  C  C272  1  0.65738000  0.36723000  0.87373000  1.0
  C  C273  1  0.70267000  0.38971000  0.84570000  1.0
  C  C274  1  0.73476000  0.35266000  0.80852000  1.0
  C  C275  1  0.22303000  0.71056000  0.69889000  1.0
  C  C276  1  0.17398000  0.72984000  0.67831000  1.0
  C  C277  1  0.14160000  0.69296000  0.64219000  1.0
  C  C278  1  0.15759000  0.63630000  0.62364000  1.0
  C  C279  1  0.20909000  0.62020000  0.63395000  1.0
  C  C280  1  0.24203000  0.65791000  0.66980000  1.0
  C  C281  1  0.25616000  0.74678000  0.74889000  1.0
  C  C282  1  0.29906000  0.77317000  0.70348000  1.0
  C  C283  1  0.27941000  0.70863000  0.80537000  1.0
  C  C284  1  0.22310000  0.79234000  0.78885000  1.0
  C  C285  1  0.28613000  0.81681000  0.65621000  1.0
  C  C286  1  0.32399000  0.84254000  0.61597000  1.0
  C  C287  1  0.37593000  0.82517000  0.62113000  1.0
  C  C288  1  0.38854000  0.77710000  0.66151000  1.0
  C  C289  1  0.35015000  0.75018000  0.70077000  1.0
  C  C290  1  0.31854000  0.73269000  0.84631000  1.0
  C  C291  1  0.34995000  0.69603000  0.88426000  1.0
  C  C292  1  0.34059000  0.63558000  0.88491000  1.0
  C  C293  1  0.29514000  0.61342000  0.85688000  1.0
  C  C294  1  0.26384000  0.65025000  0.81835000  1.0
  C  C295  1  0.17987000  0.77135000  0.82501000  1.0
  C  C296  1  0.14716000  0.80917000  0.85988000  1.0
  C  C297  1  0.15700000  0.86954000  0.86241000  1.0
  C  C298  1  0.20213000  0.89102000  0.83166000  1.0
  C  C299  1  0.23508000  0.85276000  0.79548000  1.0
  C  C300  1  0.22152000  0.20699000  0.78513000  1.0
  C  C301  1  0.23360000  0.14661000  0.79204000  1.0
  C  C302  1  0.20120000  0.10858000  0.82939000  1.0
  C  C303  1  0.15657000  0.13029000  0.86117000  1.0
  C  C304  1  0.14662000  0.19063000  0.85818000  1.0
  C  C305  1  0.17875000  0.22819000  0.82203000  1.0
  C  C306  1  0.25468000  0.25237000  0.74509000  1.0
  C  C307  1  0.27919000  0.28927000  0.80170000  1.0
  C  C308  1  0.22171000  0.29004000  0.69648000  1.0
  C  C309  1  0.29639000  0.22568000  0.69813000  1.0
  C  C310  1  0.31893000  0.26428000  0.84080000  1.0
  C  C311  1  0.35045000  0.29992000  0.87984000  1.0
  C  C312  1  0.34074000  0.36024000  0.88332000  1.0
  C  C313  1  0.29501000  0.38299000  0.85676000  1.0
  C  C314  1  0.26357000  0.34718000  0.81719000  1.0
  C  C315  1  0.24121000  0.34294000  0.66852000  1.0
  C  C316  1  0.20867000  0.38162000  0.63347000  1.0
  C  C317  1  0.15705000  0.36631000  0.62286000  1.0
  C  C318  1  0.14046000  0.30961000  0.64040000  1.0
  C  C319  1  0.17243000  0.27177000  0.67580000  1.0
  C  C320  1  0.28220000  0.18233000  0.65112000  1.0
  C  C321  1  0.31908000  0.15637000  0.60949000  1.0
  C  C322  1  0.37123000  0.17328000  0.61302000  1.0
  C  C323  1  0.38483000  0.22136000  0.65289000  1.0
  C  C324  1  0.34745000  0.24839000  0.69364000  1.0
  C  C325  1  0.71998000  0.70406000  0.80051000  1.0
  C  C326  1  0.73444000  0.64471000  0.80935000  1.0
  C  C327  1  0.70248000  0.60669000  0.84545000  1.0
  C  C328  1  0.65753000  0.62856000  0.87507000  1.0
  C  C329  1  0.64901000  0.68906000  0.87806000  1.0
  C  C330  1  0.68100000  0.72681000  0.84266000  1.0
  C  C331  1  0.74351000  0.74473000  0.74668000  1.0
  C  C332  1  0.77561000  0.78914000  0.78972000  1.0
  C  C333  1  0.70054000  0.77215000  0.70214000  1.0
  C  C334  1  0.77757000  0.71121000  0.69531000  1.0
  C  C335  1  0.81830000  0.76727000  0.82635000  1.0
  C  C336  1  0.85020000  0.80415000  0.86390000  1.0
  C  C337  1  0.84011000  0.86441000  0.86849000  1.0
  C  C338  1  0.79539000  0.88650000  0.83722000  1.0
  C  C339  1  0.76322000  0.84922000  0.79858000  1.0
  C  C340  1  0.71322000  0.81752000  0.65703000  1.0
  C  C341  1  0.67530000  0.84388000  0.61743000  1.0
  C  C342  1  0.62353000  0.82553000  0.62115000  1.0
  C  C343  1  0.61124000  0.77603000  0.65928000  1.0
  C  C344  1  0.64970000  0.74852000  0.69784000  1.0
  C  C345  1  0.75907000  0.66018000  0.66218000  1.0
  C  C346  1  0.79254000  0.62443000  0.62468000  1.0
  C  C347  1  0.84413000  0.64112000  0.61643000  1.0
  C  C348  1  0.85972000  0.69685000  0.63898000  1.0
  C  C349  1  0.82683000  0.73167000  0.67709000  1.0
  C  C350  1  0.70313000  0.22611000  0.29641000  1.0
  C  C351  1  0.71695000  0.18116000  0.34152000  1.0
  C  C352  1  0.67993000  0.15473000  0.38252000  1.0
  C  C353  1  0.62800000  0.17271000  0.38023000  1.0
  C  C354  1  0.61483000  0.22209000  0.34237000  1.0
  C  C355  1  0.65237000  0.24957000  0.30231000  1.0
  C  C356  1  0.74499000  0.25358000  0.25024000  1.0
  C  C357  1  0.77901000  0.28862000  0.30016000  1.0
  C  C358  1  0.72032000  0.29304000  0.19612000  1.0
  C  C359  1  0.77703000  0.20904000  0.20732000  1.0
  C  C360  1  0.82858000  0.26925000  0.31833000  1.0
  C  C361  1  0.86115000  0.30517000  0.35552000  1.0
  C  C362  1  0.84497000  0.36102000  0.37704000  1.0
  C  C363  1  0.79321000  0.37686000  0.36867000  1.0
  C  C364  1  0.76006000  0.34001000  0.33215000  1.0
  C  C365  1  0.73499000  0.35201000  0.18473000  1.0
  C  C366  1  0.70283000  0.38923000  0.14790000  1.0
  C  C367  1  0.65739000  0.36693000  0.12009000  1.0
  C  C368  1  0.64838000  0.30645000  0.11978000  1.0
  C  C369  1  0.68057000  0.26946000  0.15592000  1.0
  C  C370  1  0.76446000  0.14897000  0.19866000  1.0
  C  C371  1  0.79604000  0.11166000  0.15919000  1.0
  C  C372  1  0.84026000  0.13377000  0.12678000  1.0
  C  C373  1  0.85054000  0.19399000  0.13135000  1.0
  C  C374  1  0.81926000  0.23087000  0.16980000  1.0
  C  C375  1  0.22311000  0.71107000  0.29458000  1.0
  C  C376  1  0.24215000  0.65834000  0.32345000  1.0
  C  C377  1  0.20922000  0.62048000  0.35912000  1.0
  C  C378  1  0.15772000  0.63651000  0.36949000  1.0
  C  C379  1  0.14172000  0.69324000  0.35128000  1.0
  C  C380  1  0.17408000  0.73028000  0.31534000  1.0
  C  C381  1  0.25613000  0.74735000  0.24451000  1.0
  C  C382  1  0.29914000  0.77368000  0.28983000  1.0
  C  C383  1  0.22298000  0.79295000  0.20468000  1.0
  C  C384  1  0.27929000  0.70920000  0.18793000  1.0
  C  C385  1  0.35016000  0.75050000  0.29255000  1.0
  C  C386  1  0.38866000  0.77728000  0.33178000  1.0
  C  C387  1  0.37620000  0.82538000  0.37219000  1.0
  C  C388  1  0.32431000  0.84297000  0.37733000  1.0
  C  C389  1  0.28636000  0.81739000  0.33708000  1.0
  C  C390  1  0.23497000  0.85336000  0.19795000  1.0
  C  C391  1  0.20194000  0.89163000  0.16186000  1.0
  C  C392  1  0.15670000  0.87018000  0.13134000  1.0
  C  C393  1  0.14682000  0.80983000  0.13403000  1.0
  C  C394  1  0.17962000  0.77199000  0.16876000  1.0
  C  C395  1  0.26363000  0.65085000  0.17494000  1.0
  C  C396  1  0.29498000  0.61388000  0.13667000  1.0
  C  C397  1  0.34058000  0.63588000  0.10888000  1.0
  C  C398  1  0.35001000  0.69633000  0.10940000  1.0
  C  C399  1  0.31853000  0.73313000  0.14708000  1.0
  C  C400  1  0.11612000  0.09160000  0.10156000  1.0
  C  C401  1  0.88022000  0.90404000  0.09499000  1.0
  C  C402  1  0.11641000  0.90832000  0.10091000  1.0
  C  C403  1  0.88034000  0.09575000  0.09556000  1.0
  C  C404  1  0.88059000  0.09726000  0.89844000  1.0
  C  C405  1  0.11667000  0.90772000  0.89260000  1.0
  C  C406  1  0.88041000  0.90258000  0.89904000  1.0
  C  C407  1  0.11644000  0.09229000  0.89214000  1.0
  C  C408  1  0.11842000  0.59589000  0.59641000  1.0
  C  C409  1  0.88405000  0.40210000  0.58911000  1.0
  C  C410  1  0.11824000  0.40749000  0.59633000  1.0
  C  C411  1  0.88373000  0.60111000  0.58924000  1.0
  C  C412  1  0.88387000  0.60129000  0.40329000  1.0
  C  C413  1  0.11837000  0.40734000  0.39664000  1.0
  C  C414  1  0.88417000  0.40188000  0.40347000  1.0
  C  C415  1  0.11854000  0.59595000  0.39644000  1.0
  C  C416  1  0.41532000  0.86689000  0.39663000  1.0
  C  C417  1  0.58898000  0.13085000  0.40421000  1.0
  C  C418  1  0.58414000  0.86730000  0.39640000  1.0
  C  C419  1  0.41036000  0.13099000  0.40432000  1.0
  C  C420  1  0.40985000  0.13109000  0.58866000  1.0
  C  C421  1  0.58419000  0.86690000  0.59701000  1.0
  C  C422  1  0.58948000  0.13080000  0.58884000  1.0
  C  C423  1  0.41493000  0.86681000  0.59670000  1.0
  C  C424  1  0.61680000  0.59021000  0.09561000  1.0
  C  C425  1  0.38152000  0.39874000  0.08717000  1.0
  C  C426  1  0.61670000  0.40522000  0.09596000  1.0
  C  C427  1  0.38142000  0.59669000  0.08664000  1.0
  C  C428  1  0.38143000  0.59653000  0.90741000  1.0
  C  C429  1  0.61669000  0.40535000  0.89817000  1.0
  C  C430  1  0.38154000  0.39887000  0.90690000  1.0
  C  C431  1  0.61680000  0.59001000  0.89848000  1.0
  O  O432  1  0.06915000  0.10446000  0.11862000  1.0
  O  O433  1  0.12841000  0.05174000  0.05680000  1.0
  O  O434  1  0.92720000  0.89076000  0.11167000  1.0
  O  O435  1  0.86795000  0.94618000  0.05317000  1.0
  O  O436  1  0.06945000  0.89526000  0.11799000  1.0
  O  O437  1  0.12858000  0.94848000  0.05653000  1.0
  O  O438  1  0.92730000  0.10896000  0.11215000  1.0
  O  O439  1  0.86799000  0.05383000  0.05342000  1.0
  O  O440  1  0.99633000  0.06339000  0.18828000  1.0
  O  O441  1  0.00212000  0.16530000  0.08801000  1.0
  O  O442  1  0.99341000  0.93276000  0.18879000  1.0
  O  O443  1  0.00261000  0.83459000  0.08664000  1.0
  O  O444  1  0.04558000  0.00002000  0.09484000  1.0
  O  O445  1  0.95209000  0.00000000  0.09398000  1.0
  O  O446  1  0.92766000  0.11162000  0.88365000  1.0
  O  O447  1  0.86815000  0.05411000  0.93883000  1.0
  O  O448  1  0.06971000  0.89416000  0.87613000  1.0
  O  O449  1  0.12881000  0.94853000  0.93616000  1.0
  O  O450  1  0.92750000  0.88819000  0.88416000  1.0
  O  O451  1  0.86804000  0.94591000  0.93916000  1.0
  O  O452  1  0.06948000  0.10577000  0.87579000  1.0
  O  O453  1  0.12869000  0.05169000  0.93595000  1.0
  O  O454  1  0.99271000  0.06307000  0.80353000  1.0
  O  O455  1  0.00053000  0.16453000  0.89720000  1.0
  O  O456  1  0.99272000  0.93700000  0.80352000  1.0
  O  O457  1  0.00054000  0.83549000  0.89667000  1.0
  O  O458  1  0.95180000  0.99997000  0.89796000  1.0
  O  O459  1  0.04577000  0.99999000  0.89700000  1.0
  O  O460  1  0.95252000  0.08468000  0.99602000  1.0
  O  O461  1  0.04314000  0.91609000  0.99604000  1.0
  O  O462  1  0.04317000  0.08392000  0.99606000  1.0
  O  O463  1  0.95255000  0.91529000  0.99602000  1.0
  O  O464  1  0.07168000  0.60735000  0.61527000  1.0
  O  O465  1  0.13091000  0.55504000  0.55329000  1.0
  O  O466  1  0.93097000  0.38914000  0.60546000  1.0
  O  O467  1  0.87120000  0.44638000  0.55093000  1.0
  O  O468  1  0.07154000  0.39642000  0.61548000  1.0
  O  O469  1  0.13084000  0.44833000  0.55321000  1.0
  O  O470  1  0.93065000  0.61444000  0.60538000  1.0
  O  O471  1  0.87106000  0.55682000  0.55100000  1.0
  O  O472  1  0.99446000  0.56389000  0.68897000  1.0
  O  O473  1  0.00428000  0.66549000  0.59741000  1.0
  O  O474  1  0.99450000  0.44036000  0.68905000  1.0
  O  O475  1  0.00425000  0.33843000  0.59796000  1.0
  O  O476  1  0.04869000  0.50194000  0.59581000  1.0
  O  O477  1  0.95378000  0.50190000  0.59470000  1.0
  O  O478  1  0.93083000  0.61468000  0.38736000  1.0
  O  O479  1  0.87114000  0.55688000  0.44130000  1.0
  O  O480  1  0.07169000  0.39626000  0.37738000  1.0
  O  O481  1  0.13091000  0.44826000  0.43968000  1.0
  O  O482  1  0.93111000  0.38888000  0.38726000  1.0
  O  O483  1  0.87127000  0.44627000  0.44145000  1.0
  O  O484  1  0.07182000  0.60739000  0.37747000  1.0
  O  O485  1  0.13099000  0.55505000  0.43952000  1.0
  O  O486  1  0.99465000  0.56344000  0.30350000  1.0
  O  O487  1  0.00427000  0.66529000  0.39412000  1.0
  O  O488  1  0.99470000  0.44031000  0.30353000  1.0
  O  O489  1  0.00432000  0.33840000  0.39438000  1.0
  O  O490  1  0.95386000  0.50182000  0.39771000  1.0
  O  O491  1  0.04882000  0.50186000  0.39680000  1.0
  O  O492  1  0.95596000  0.58607000  0.49618000  1.0
  O  O493  1  0.04471000  0.41816000  0.49635000  1.0
  O  O494  1  0.04474000  0.58556000  0.49626000  1.0
  O  O495  1  0.95610000  0.41761000  0.49626000  1.0
  O  O496  1  0.40664000  0.91990000  0.37691000  1.0
  O  O497  1  0.45115000  0.85165000  0.43983000  1.0
  O  O498  1  0.59905000  0.07761000  0.38680000  1.0
  O  O499  1  0.55004000  0.14659000  0.44225000  1.0
  O  O500  1  0.59242000  0.92024000  0.37619000  1.0
  O  O501  1  0.54849000  0.85197000  0.43987000  1.0
  O  O502  1  0.39976000  0.07763000  0.38787000  1.0
  O  O503  1  0.44960000  0.14670000  0.44182000  1.0
  O  O504  1  0.44651000  0.00646000  0.30410000  1.0
  O  O505  1  0.35634000  0.99540000  0.39490000  1.0
  O  O506  1  0.55228000  0.00287000  0.30495000  1.0
  O  O507  1  0.64361000  0.99575000  0.39839000  1.0
  O  O508  1  0.49984000  0.94441000  0.39773000  1.0
  O  O509  1  0.49988000  0.05331000  0.39858000  1.0
  O  O510  1  0.39892000  0.07769000  0.60462000  1.0
  O  O511  1  0.44943000  0.14677000  0.55176000  1.0
  O  O512  1  0.59285000  0.91992000  0.61663000  1.0
  O  O513  1  0.54816000  0.85159000  0.55413000  1.0
  O  O514  1  0.60020000  0.07738000  0.60485000  1.0
  O  O515  1  0.54992000  0.14662000  0.55195000  1.0
  O  O516  1  0.40596000  0.91986000  0.61607000  1.0
  O  O517  1  0.45106000  0.85155000  0.55397000  1.0
  O  O518  1  0.44578000  0.00701000  0.68946000  1.0
  O  O519  1  0.35595000  0.99548000  0.59900000  1.0
  O  O520  1  0.55187000  0.00698000  0.68983000  1.0
  O  O521  1  0.64255000  0.99567000  0.60158000  1.0
  O  O522  1  0.49937000  0.05342000  0.59551000  1.0
  O  O523  1  0.49935000  0.94442000  0.59658000  1.0
  O  O524  1  0.42588000  0.05013000  0.49670000  1.0
  O  O525  1  0.57289000  0.94945000  0.49736000  1.0
  O  O526  1  0.42631000  0.94954000  0.49675000  1.0
  O  O527  1  0.57330000  0.05007000  0.49732000  1.0
  O  O528  1  0.57049000  0.60392000  0.11452000  1.0
  O  O529  1  0.62828000  0.54848000  0.05395000  1.0
  O  O530  1  0.42813000  0.38344000  0.10283000  1.0
  O  O531  1  0.36963000  0.44433000  0.05139000  1.0
  O  O532  1  0.57038000  0.39154000  0.11477000  1.0
  O  O533  1  0.62824000  0.44677000  0.05406000  1.0
  O  O534  1  0.42803000  0.61203000  0.10235000  1.0
  O  O535  1  0.36954000  0.55090000  0.05122000  1.0
  O  O536  1  0.49222000  0.56004000  0.18990000  1.0
  O  O537  1  0.50238000  0.66152000  0.10057000  1.0
  O  O538  1  0.49221000  0.43534000  0.18991000  1.0
  O  O539  1  0.50240000  0.33381000  0.10047000  1.0
  O  O540  1  0.54620000  0.49767000  0.09679000  1.0
  O  O541  1  0.45218000  0.49768000  0.09594000  1.0
  O  O542  1  0.42803000  0.61188000  0.89169000  1.0
  O  O543  1  0.36955000  0.55083000  0.94296000  1.0
  O  O544  1  0.57037000  0.39166000  0.87939000  1.0
  O  O545  1  0.62825000  0.44681000  0.94018000  1.0
  O  O546  1  0.42814000  0.38355000  0.89124000  1.0
  O  O547  1  0.36964000  0.44437000  0.94281000  1.0
  O  O548  1  0.57050000  0.60376000  0.87960000  1.0
  O  O549  1  0.62829000  0.54837000  0.94025000  1.0
  O  O550  1  0.49222000  0.56010000  0.80435000  1.0
  O  O551  1  0.50243000  0.66153000  0.89394000  1.0
  O  O552  1  0.49221000  0.43520000  0.80437000  1.0
  O  O553  1  0.50245000  0.33376000  0.89417000  1.0
  O  O554  1  0.45220000  0.49766000  0.89835000  1.0
  O  O555  1  0.54619000  0.49765000  0.89749000  1.0
  O  O556  1  0.45433000  0.58215000  0.99712000  1.0
  O  O557  1  0.54261000  0.41355000  0.99714000  1.0
  O  O558  1  0.54262000  0.58172000  0.99712000  1.0
  O  O559  1  0.45428000  0.41311000  0.99714000  1.0
