# generated using pymatgen
data_Zr6Ni3H124C216(N3O8)4
_symmetry_space_group_name_H-M   'P 1'
_cell_length_a   25.34680000
_cell_length_b   25.34680000
_cell_length_c   25.34680000
_cell_angle_alpha   90.00000000
_cell_angle_beta   90.00000000
_cell_angle_gamma   90.00000000
_symmetry_Int_Tables_number   1
_chemical_formula_structural   Zr6Ni3H124C216(N3O8)4
_chemical_formula_sum   'Zr6 Ni3 H124 C216 N12 O32'
_cell_volume   16284.31197772
_cell_formula_units_Z   1
loop_
 _symmetry_equiv_pos_site_id
 _symmetry_equiv_pos_as_xyz
  1  'x, y, z'
loop_
 _atom_site_type_symbol
 _atom_site_label
 _atom_site_symmetry_multiplicity
 _atom_site_fract_x
 _atom_site_fract_y
 _atom_site_fract_z
 _atom_site_occupancy
  Zr  Zr0  1  0.00008000  0.99217000  0.90688000  1.0
  Zr  Zr1  1  0.09314000  0.99218000  0.00009000  1.0
  Zr  Zr2  1  0.90681000  0.99255000  0.99998000  1.0
  Zr  Zr3  1  0.99999000  0.08551000  0.99978000  1.0
  Zr  Zr4  1  0.99974000  0.89919000  0.00019000  1.0
  Zr  Zr5  1  0.00004000  0.99254000  0.09317000  1.0
  Ni  Ni6  1  0.50005000  0.99256000  0.50009000  1.0
  Ni  Ni7  1  0.50011000  0.49246000  0.00030000  1.0
  Ni  Ni8  1  0.99994000  0.49233000  0.50001000  1.0
  H  H9  1  0.45125000  0.99286000  0.29857000  1.0
  H  H10  1  0.30237000  0.97972000  0.44885000  1.0
  H  H11  1  0.70121000  0.00222000  0.45097000  1.0
  H  H12  1  0.55111000  0.98990000  0.30184000  1.0
  H  H13  1  0.29927000  0.97699000  0.54895000  1.0
  H  H14  1  0.44882000  0.99495000  0.69830000  1.0
  H  H15  1  0.54868000  0.99821000  0.70162000  1.0
  H  H16  1  0.69784000  0.00572000  0.55099000  1.0
  H  H17  1  0.29947000  0.44369000  0.01598000  1.0
  H  H18  1  0.44840000  0.29505000  0.98671000  1.0
  H  H19  1  0.45146000  0.69389000  0.99667000  1.0
  H  H20  1  0.30251000  0.54375000  0.01222000  1.0
  H  H21  1  0.54843000  0.29195000  0.98142000  1.0
  H  H22  1  0.69820000  0.44103000  0.00199000  1.0
  H  H23  1  0.70159000  0.54089000  0.00653000  1.0
  H  H24  1  0.55124000  0.69064000  0.00225000  1.0
  H  H25  1  0.98732000  0.29147000  0.45121000  1.0
  H  H26  1  0.01289000  0.44105000  0.30250000  1.0
  H  H27  1  0.01323000  0.44354000  0.70082000  1.0
  H  H28  1  0.98750000  0.29480000  0.55132000  1.0
  H  H29  1  0.01284000  0.54116000  0.29917000  1.0
  H  H30  1  0.98644000  0.68979000  0.44871000  1.0
  H  H31  1  0.98635000  0.69312000  0.54882000  1.0
  H  H32  1  0.01296000  0.54365000  0.69750000  1.0
  H  H33  1  0.07038000  0.06224000  0.92987000  1.0
  H  H34  1  0.92960000  0.92226000  0.92997000  1.0
  H  H35  1  0.92988000  0.06276000  0.07000000  1.0
  H  H36  1  0.06996000  0.92214000  0.07027000  1.0
  H  H37  1  0.38168000  0.91376000  0.33143000  1.0
  H  H38  1  0.33490000  0.06896000  0.38241000  1.0
  H  H39  1  0.11200000  0.02501000  0.22440000  1.0
  H  H40  1  0.22437000  0.96461000  0.11153000  1.0
  H  H41  1  0.26530000  0.07029000  0.31490000  1.0
  H  H42  1  0.18041000  0.02437000  0.29264000  1.0
  H  H43  1  0.31280000  0.91518000  0.26333000  1.0
  H  H44  1  0.29248000  0.96378000  0.17986000  1.0
  H  H45  1  0.66769000  0.91398000  0.38345000  1.0
  H  H46  1  0.62019000  0.06966000  0.33469000  1.0
  H  H47  1  0.77562000  0.02054000  0.11214000  1.0
  H  H48  1  0.88849000  0.95927000  0.22404000  1.0
  H  H49  1  0.68778000  0.06868000  0.26520000  1.0
  H  H50  1  0.70781000  0.02092000  0.18088000  1.0
  H  H51  1  0.73594000  0.91307000  0.31462000  1.0
  H  H52  1  0.82046000  0.95945000  0.29259000  1.0
  H  H53  1  0.66464000  0.92044000  0.61970000  1.0
  H  H54  1  0.61835000  0.07687000  0.66725000  1.0
  H  H55  1  0.77647000  0.02754000  0.88842000  1.0
  H  H56  1  0.88785000  0.96587000  0.77528000  1.0
  H  H57  1  0.68730000  0.07668000  0.73543000  1.0
  H  H58  1  0.70814000  0.02907000  0.82016000  1.0
  H  H59  1  0.73426000  0.92038000  0.68710000  1.0
  H  H60  1  0.81933000  0.96712000  0.70726000  1.0
  H  H61  1  0.38239000  0.91129000  0.66626000  1.0
  H  H62  1  0.33045000  0.06517000  0.61632000  1.0
  H  H63  1  0.11119000  0.01718000  0.77518000  1.0
  H  H64  1  0.22453000  0.95937000  0.88845000  1.0
  H  H65  1  0.26225000  0.06470000  0.68507000  1.0
  H  H66  1  0.17921000  0.01648000  0.70681000  1.0
  H  H67  1  0.31470000  0.91088000  0.73575000  1.0
  H  H68  1  0.29250000  0.95852000  0.81976000  1.0
  H  H69  1  0.32778000  0.37848000  0.92776000  1.0
  H  H70  1  0.38558000  0.32349000  0.07778000  1.0
  H  H71  1  0.22534000  0.10319000  0.02965000  1.0
  H  H72  1  0.11067000  0.21783000  0.97741000  1.0
  H  H73  1  0.31797000  0.25395000  0.07845000  1.0
  H  H74  1  0.29340000  0.17173000  0.03017000  1.0
  H  H75  1  0.25979000  0.30959000  0.92844000  1.0
  H  H76  1  0.17874000  0.28609000  0.97793000  1.0
  H  H77  1  0.33424000  0.60961000  0.92248000  1.0
  H  H78  1  0.38249000  0.66164000  0.07688000  1.0
  H  H79  1  0.22436000  0.88087000  0.02667000  1.0
  H  H80  1  0.11147000  0.76758000  0.96805000  1.0
  H  H81  1  0.31351000  0.72960000  0.07576000  1.0
  H  H82  1  0.29258000  0.81269000  0.02697000  1.0
  H  H83  1  0.26451000  0.67702000  0.92145000  1.0
  H  H84  1  0.18002000  0.69945000  0.96818000  1.0
  H  H85  1  0.62307000  0.65436000  0.92517000  1.0
  H  H86  1  0.66463000  0.61271000  0.08459000  1.0
  H  H87  1  0.88766000  0.76976000  0.03769000  1.0
  H  H88  1  0.77582000  0.87955000  0.97102000  1.0
  H  H89  1  0.73287000  0.68167000  0.08491000  1.0
  H  H90  1  0.81954000  0.70124000  0.03891000  1.0
  H  H91  1  0.69040000  0.72406000  0.92564000  1.0
  H  H92  1  0.70799000  0.81077000  0.97180000  1.0
  H  H93  1  0.66684000  0.37523000  0.91762000  1.0
  H  H94  1  0.61534000  0.32225000  0.07063000  1.0
  H  H95  1  0.77489000  0.10358000  0.02383000  1.0
  H  H96  1  0.88859000  0.21700000  0.96701000  1.0
  H  H97  1  0.68412000  0.25414000  0.07046000  1.0
  H  H98  1  0.70648000  0.17152000  0.02246000  1.0
  H  H99  1  0.73636000  0.30754000  0.91750000  1.0
  H  H100  1  0.81986000  0.28492000  0.96555000  1.0
  H  H101  1  0.07646000  0.32155000  0.38633000  1.0
  H  H102  1  0.92508000  0.37575000  0.33138000  1.0
  H  H103  1  0.97542000  0.21792000  0.11099000  1.0
  H  H104  1  0.03014000  0.10340000  0.22462000  1.0
  H  H105  1  0.92604000  0.30826000  0.26181000  1.0
  H  H106  1  0.97505000  0.28574000  0.17966000  1.0
  H  H107  1  0.07741000  0.25359000  0.31733000  1.0
  H  H108  1  0.02978000  0.17135000  0.29313000  1.0
  H  H109  1  0.07531000  0.32381000  0.61658000  1.0
  H  H110  1  0.92387000  0.37857000  0.67079000  1.0
  H  H111  1  0.97003000  0.21694000  0.88888000  1.0
  H  H112  1  0.02531000  0.10338000  0.77456000  1.0
  H  H113  1  0.92301000  0.30956000  0.73874000  1.0
  H  H114  1  0.97049000  0.28544000  0.82093000  1.0
  H  H115  1  0.07446000  0.25425000  0.68408000  1.0
  H  H116  1  0.02575000  0.17204000  0.70672000  1.0
  H  H117  1  0.92502000  0.60849000  0.66898000  1.0
  H  H118  1  0.07583000  0.66356000  0.61333000  1.0
  H  H119  1  0.02876000  0.88150000  0.77510000  1.0
  H  H120  1  0.97599000  0.76655000  0.88923000  1.0
  H  H121  1  0.07669000  0.73154000  0.68231000  1.0
  H  H122  1  0.02837000  0.81354000  0.70662000  1.0
  H  H123  1  0.92593000  0.67597000  0.73857000  1.0
  H  H124  1  0.97553000  0.69873000  0.82055000  1.0
  H  H125  1  0.92348000  0.60575000  0.32897000  1.0
  H  H126  1  0.07449000  0.66123000  0.38368000  1.0
  H  H127  1  0.02385000  0.88146000  0.22572000  1.0
  H  H128  1  0.97019000  0.76758000  0.11095000  1.0
  H  H129  1  0.07349000  0.73082000  0.31621000  1.0
  H  H130  1  0.02416000  0.81281000  0.29355000  1.0
  H  H131  1  0.92252000  0.67475000  0.26101000  1.0
  H  H132  1  0.97045000  0.69910000  0.17892000  1.0
  C  C133  1  0.45685000  0.99155000  0.38894000  1.0
  C  C134  1  0.47455000  0.99203000  0.33433000  1.0
  C  C135  1  0.39191000  0.98855000  0.45860000  1.0
  C  C136  1  0.33649000  0.98304000  0.47428000  1.0
  C  C137  1  0.40645000  0.99090000  0.40293000  1.0
  C  C138  1  0.61115000  0.99534000  0.45688000  1.0
  C  C139  1  0.66562000  0.99978000  0.47445000  1.0
  C  C140  1  0.54160000  0.99096000  0.39187000  1.0
  C  C141  1  0.52583000  0.99068000  0.33621000  1.0
  C  C142  1  0.59729000  0.99243000  0.40655000  1.0
  C  C143  1  0.38911000  0.98637000  0.54328000  1.0
  C  C144  1  0.33472000  0.98152000  0.52558000  1.0
  C  C145  1  0.45850000  0.99268000  0.60831000  1.0
  C  C146  1  0.47416000  0.99499000  0.66396000  1.0
  C  C147  1  0.40292000  0.98870000  0.59366000  1.0
  C  C148  1  0.54314000  0.99698000  0.61124000  1.0
  C  C149  1  0.52542000  0.99691000  0.66585000  1.0
  C  C150  1  0.60815000  0.99805000  0.54154000  1.0
  C  C151  1  0.66369000  0.00156000  0.52572000  1.0
  C  C152  1  0.59353000  0.99818000  0.59726000  1.0
  C  C153  1  0.38919000  0.44928000  0.00543000  1.0
  C  C154  1  0.33486000  0.46702000  0.01084000  1.0
  C  C155  1  0.45845000  0.38440000  0.99698000  1.0
  C  C156  1  0.47393000  0.32909000  0.98998000  1.0
  C  C157  1  0.40295000  0.39891000  0.00233000  1.0
  C  C158  1  0.45696000  0.60357000  0.99975000  1.0
  C  C159  1  0.47472000  0.65815000  0.99870000  1.0
  C  C160  1  0.39196000  0.53396000  0.00263000  1.0
  C  C161  1  0.33660000  0.51830000  0.00873000  1.0
  C  C162  1  0.40654000  0.58962000  0.00012000  1.0
  C  C163  1  0.54307000  0.38160000  0.99256000  1.0
  C  C164  1  0.52519000  0.32732000  0.98715000  1.0
  C  C165  1  0.60826000  0.45085000  0.99881000  1.0
  C  C166  1  0.66390000  0.46642000  0.00184000  1.0
  C  C167  1  0.59350000  0.39531000  0.99458000  1.0
  C  C168  1  0.61125000  0.53546000  0.00390000  1.0
  C  C169  1  0.66583000  0.51766000  0.00448000  1.0
  C  C170  1  0.54167000  0.60061000  0.00260000  1.0
  C  C171  1  0.52595000  0.65628000  0.00140000  1.0
  C  C172  1  0.59736000  0.58588000  0.00427000  1.0
  C  C173  1  0.99687000  0.38129000  0.45691000  1.0
  C  C174  1  0.99147000  0.32695000  0.47461000  1.0
  C  C175  1  0.00310000  0.45072000  0.39196000  1.0
  C  C176  1  0.00861000  0.46643000  0.33654000  1.0
  C  C177  1  0.00017000  0.39507000  0.40657000  1.0
  C  C178  1  0.00341000  0.44923000  0.61103000  1.0
  C  C179  1  0.00895000  0.46693000  0.66536000  1.0
  C  C180  1  0.99706000  0.38428000  0.54162000  1.0
  C  C181  1  0.99163000  0.32885000  0.52593000  1.0
  C  C182  1  0.00011000  0.39890000  0.59726000  1.0
  C  C183  1  0.00310000  0.53544000  0.38897000  1.0
  C  C184  1  0.00866000  0.51775000  0.33464000  1.0
  C  C185  1  0.99650000  0.60036000  0.45839000  1.0
  C  C186  1  0.99079000  0.65576000  0.47410000  1.0
  C  C187  1  0.99961000  0.58577000  0.40275000  1.0
  C  C188  1  0.99638000  0.60335000  0.54311000  1.0
  C  C189  1  0.99067000  0.65766000  0.52542000  1.0
  C  C190  1  0.00310000  0.53395000  0.60805000  1.0
  C  C191  1  0.00874000  0.51826000  0.66346000  1.0
  C  C192  1  0.99988000  0.58959000  0.59344000  1.0
  C  C193  1  0.87939000  0.99518000  0.87914000  1.0
  C  C194  1  0.12076000  0.98943000  0.87929000  1.0
  C  C195  1  0.99808000  0.11284000  0.87898000  1.0
  C  C196  1  0.00188000  0.87131000  0.87953000  1.0
  C  C197  1  0.12082000  0.99449000  0.12077000  1.0
  C  C198  1  0.87925000  0.99042000  0.12075000  1.0
  C  C199  1  0.12078000  0.11302000  0.00246000  1.0
  C  C200  1  0.12053000  0.87141000  0.99791000  1.0
  C  C201  1  0.87895000  0.87188000  0.00289000  1.0
  C  C202  1  0.87922000  0.11320000  0.99698000  1.0
  C  C203  1  0.00217000  0.11338000  0.12048000  1.0
  C  C204  1  0.99772000  0.87184000  0.12103000  1.0
  C  C205  1  0.28362000  0.99293000  0.28352000  1.0
  C  C206  1  0.31730000  0.94909000  0.28891000  1.0
  C  C207  1  0.35658000  0.94816000  0.32789000  1.0
  C  C208  1  0.36382000  0.99144000  0.36181000  1.0
  C  C209  1  0.33018000  0.03520000  0.35665000  1.0
  C  C210  1  0.29032000  0.03582000  0.31818000  1.0
  C  C211  1  0.24192000  0.99392000  0.24177000  1.0
  C  C212  1  0.19050000  0.01149000  0.25318000  1.0
  C  C213  1  0.15122000  0.01156000  0.21411000  1.0
  C  C214  1  0.16255000  0.99488000  0.16234000  1.0
  C  C215  1  0.21419000  0.97793000  0.15083000  1.0
  C  C216  1  0.25319000  0.97709000  0.19010000  1.0
  C  C217  1  0.71727000  0.99077000  0.28431000  1.0
  C  C218  1  0.71103000  0.94755000  0.31864000  1.0
  C  C219  1  0.67195000  0.94793000  0.35785000  1.0
  C  C220  1  0.63867000  0.99183000  0.36420000  1.0
  C  C221  1  0.64515000  0.03526000  0.33035000  1.0
  C  C222  1  0.68367000  0.03456000  0.29058000  1.0
  C  C223  1  0.75868000  0.99024000  0.24227000  1.0
  C  C224  1  0.74714000  0.00751000  0.19079000  1.0
  C  C225  1  0.78596000  0.00693000  0.15131000  1.0
  C  C226  1  0.83764000  0.98986000  0.16244000  1.0
  C  C227  1  0.84922000  0.97282000  0.21403000  1.0
  C  C228  1  0.81016000  0.97262000  0.25328000  1.0
  C  C229  1  0.71629000  0.99849000  0.71674000  1.0
  C  C230  1  0.70937000  0.95487000  0.68308000  1.0
  C  C231  1  0.66951000  0.95477000  0.64467000  1.0
  C  C232  1  0.63611000  0.99858000  0.63843000  1.0
  C  C233  1  0.64339000  0.04251000  0.67150000  1.0
  C  C234  1  0.68269000  0.04228000  0.71052000  1.0
  C  C235  1  0.75823000  0.99818000  0.75825000  1.0
  C  C236  1  0.74730000  0.01543000  0.80986000  1.0
  C  C237  1  0.78641000  0.01423000  0.84906000  1.0
  C  C238  1  0.83778000  0.99655000  0.83747000  1.0
  C  C239  1  0.84885000  0.97989000  0.78565000  1.0
  C  C240  1  0.80949000  0.98028000  0.74670000  1.0
  C  C241  1  0.28296000  0.98773000  0.71593000  1.0
  C  C242  1  0.31784000  0.94488000  0.71007000  1.0
  C  C243  1  0.35640000  0.94496000  0.67030000  1.0
  C  C244  1  0.36154000  0.98824000  0.63601000  1.0
  C  C245  1  0.32711000  0.03128000  0.64212000  1.0
  C  C246  1  0.28806000  0.03087000  0.68132000  1.0
  C  C247  1  0.24135000  0.98751000  0.75778000  1.0
  C  C248  1  0.18962000  0.00407000  0.74635000  1.0
  C  C249  1  0.15054000  0.00413000  0.78552000  1.0
  C  C250  1  0.16226000  0.98837000  0.83749000  1.0
  C  C251  1  0.21408000  0.97195000  0.84897000  1.0
  C  C252  1  0.25298000  0.97114000  0.80954000  1.0
  C  C253  1  0.28328000  0.27627000  0.00358000  1.0
  C  C254  1  0.28679000  0.31229000  0.96144000  1.0
  C  C255  1  0.32573000  0.35159000  0.96090000  1.0
  C  C256  1  0.36166000  0.35644000  0.00287000  1.0
  C  C257  1  0.35831000  0.32058000  0.04502000  1.0
  C  C258  1  0.31979000  0.28075000  0.04523000  1.0
  C  C259  1  0.24161000  0.23444000  0.00399000  1.0
  C  C260  1  0.25357000  0.18230000  0.01888000  1.0
  C  C261  1  0.21458000  0.14293000  0.01825000  1.0
  C  C262  1  0.16236000  0.15480000  0.00344000  1.0
  C  C263  1  0.15033000  0.20713000  0.98916000  1.0
  C  C264  1  0.18946000  0.24627000  0.98911000  1.0
  C  C265  1  0.28358000  0.70889000  0.99843000  1.0
  C  C266  1  0.28990000  0.67399000  0.95567000  1.0
  C  C267  1  0.32984000  0.63560000  0.95611000  1.0
  C  C268  1  0.36394000  0.63077000  0.99956000  1.0
  C  C269  1  0.35707000  0.66495000  0.04270000  1.0
  C  C270  1  0.31772000  0.70384000  0.04194000  1.0
  C  C271  1  0.24179000  0.75056000  0.99768000  1.0
  C  C272  1  0.25316000  0.80232000  0.01417000  1.0
  C  C273  1  0.21408000  0.84150000  0.01364000  1.0
  C  C274  1  0.16227000  0.82984000  0.99735000  1.0
  C  C275  1  0.15084000  0.77799000  0.98101000  1.0
  C  C276  1  0.19019000  0.73898000  0.98077000  1.0
  C  C277  1  0.71701000  0.70843000  0.00532000  1.0
  C  C278  1  0.68507000  0.70017000  0.96066000  1.0
  C  C279  1  0.64670000  0.66028000  0.96028000  1.0
  C  C280  1  0.63866000  0.62832000  0.00486000  1.0
  C  C281  1  0.67017000  0.63677000  0.04972000  1.0
  C  C282  1  0.70922000  0.67606000  0.04978000  1.0
  C  C283  1  0.75834000  0.75051000  0.00538000  1.0
  C  C284  1  0.80950000  0.74009000  0.02422000  1.0
  C  C285  1  0.84861000  0.77929000  0.02321000  1.0
  C  C286  1  0.83732000  0.83026000  0.00422000  1.0
  C  C287  1  0.78591000  0.84086000  0.98608000  1.0
  C  C288  1  0.74709000  0.80137000  0.98621000  1.0
  C  C289  1  0.71576000  0.27531000  0.99393000  1.0
  C  C290  1  0.71032000  0.31044000  0.95123000  1.0
  C  C291  1  0.67051000  0.34900000  0.95114000  1.0
  C  C292  1  0.63577000  0.35383000  0.99408000  1.0
  C  C293  1  0.64146000  0.31912000  0.03696000  1.0
  C  C294  1  0.68069000  0.28012000  0.03673000  1.0
  C  C295  1  0.75765000  0.23372000  0.99398000  1.0
  C  C296  1  0.74612000  0.18198000  0.01043000  1.0
  C  C297  1  0.78533000  0.14294000  0.01088000  1.0
  C  C298  1  0.83743000  0.15470000  0.99560000  1.0
  C  C299  1  0.84901000  0.20652000  0.97925000  1.0
  C  C300  1  0.80955000  0.24540000  0.97807000  1.0
  C  C301  1  0.00179000  0.27544000  0.28400000  1.0
  C  C302  1  0.04381000  0.27982000  0.32006000  1.0
  C  C303  1  0.04340000  0.31874000  0.35941000  1.0
  C  C304  1  0.00065000  0.35374000  0.36418000  1.0
  C  C305  1  0.95852000  0.34932000  0.32842000  1.0
  C  C306  1  0.95923000  0.31086000  0.28858000  1.0
  C  C307  1  0.00232000  0.23402000  0.24195000  1.0
  C  C308  1  0.98697000  0.24603000  0.18998000  1.0
  C  C309  1  0.98755000  0.20718000  0.15053000  1.0
  C  C310  1  0.00279000  0.15504000  0.16213000  1.0
  C  C311  1  0.01801000  0.14302000  0.21419000  1.0
  C  C312  1  0.01812000  0.18206000  0.25345000  1.0
  C  C313  1  0.99868000  0.27634000  0.71691000  1.0
  C  C314  1  0.04123000  0.28097000  0.68148000  1.0
  C  C315  1  0.04188000  0.32081000  0.64302000  1.0
  C  C316  1  0.99971000  0.35651000  0.63860000  1.0
  C  C317  1  0.95696000  0.35168000  0.67360000  1.0
  C  C318  1  0.95661000  0.31233000  0.71251000  1.0
  C  C319  1  0.99819000  0.23430000  0.75834000  1.0
  C  C320  1  0.98225000  0.24578000  0.81026000  1.0
  C  C321  1  0.98230000  0.20653000  0.84929000  1.0
  C  C322  1  0.99760000  0.15449000  0.83732000  1.0
  C  C323  1  0.01306000  0.14290000  0.78524000  1.0
  C  C324  1  0.01370000  0.18235000  0.74639000  1.0
  C  C325  1  0.00137000  0.70924000  0.71600000  1.0
  C  C326  1  0.95900000  0.67357000  0.71164000  1.0
  C  C327  1  0.95832000  0.63512000  0.67179000  1.0
  C  C328  1  0.00030000  0.63093000  0.63583000  1.0
  C  C329  1  0.04288000  0.66618000  0.64041000  1.0
  C  C330  1  0.04324000  0.70510000  0.67975000  1.0
  C  C331  1  0.00187000  0.75066000  0.75804000  1.0
  C  C332  1  0.01713000  0.80275000  0.74640000  1.0
  C  C333  1  0.01705000  0.84178000  0.78566000  1.0
  C  C334  1  0.00240000  0.82966000  0.83785000  1.0
  C  C335  1  0.98766000  0.77739000  0.84959000  1.0
  C  C336  1  0.98704000  0.73854000  0.81014000  1.0
  C  C337  1  0.99794000  0.70835000  0.28312000  1.0
  C  C338  1  0.95604000  0.67214000  0.28736000  1.0
  C  C339  1  0.95645000  0.63279000  0.32628000  1.0
  C  C340  1  0.99911000  0.62816000  0.36142000  1.0
  C  C341  1  0.04113000  0.66408000  0.35714000  1.0
  C  C342  1  0.04039000  0.70393000  0.31869000  1.0
  C  C343  1  0.99740000  0.75040000  0.24171000  1.0
  C  C344  1  0.01249000  0.80244000  0.25378000  1.0
  C  C345  1  0.01194000  0.84188000  0.21492000  1.0
  C  C346  1  0.99703000  0.83019000  0.16270000  1.0
  C  C347  1  0.98206000  0.77808000  0.15063000  1.0
  C  C348  1  0.98190000  0.73883000  0.18967000  1.0
  N  N349  1  0.50124000  0.99121000  0.42426000  1.0
  N  N350  1  0.42430000  0.98956000  0.49893000  1.0
  N  N351  1  0.49883000  0.99415000  0.57593000  1.0
  N  N352  1  0.57582000  0.99534000  0.50125000  1.0
  N  N353  1  0.42432000  0.49363000  0.00161000  1.0
  N  N354  1  0.49884000  0.41672000  0.99749000  1.0
  N  N355  1  0.57593000  0.49122000  0.00029000  1.0
  N  N356  1  0.50131000  0.56826000  0.00182000  1.0
  N  N357  1  0.99919000  0.41654000  0.50125000  1.0
  N  N358  1  0.00082000  0.49109000  0.42422000  1.0
  N  N359  1  0.99882000  0.56811000  0.49876000  1.0
  N  N360  1  0.00094000  0.49358000  0.57579000  1.0
  O  O361  1  0.86397000  0.99504000  0.92811000  1.0
  O  O362  1  0.13617000  0.98978000  0.92828000  1.0
  O  O363  1  0.99912000  0.06384000  0.86369000  1.0
  O  O364  1  0.00205000  0.92028000  0.86411000  1.0
  O  O365  1  0.00049000  0.85600000  0.92851000  1.0
  O  O366  1  0.99822000  0.12830000  0.92792000  1.0
  O  O367  1  0.07181000  0.99070000  0.86394000  1.0
  O  O368  1  0.92836000  0.99357000  0.86379000  1.0
  O  O369  1  0.04785000  0.94422000  0.95223000  1.0
  O  O370  1  0.95213000  0.04024000  0.95192000  1.0
  O  O371  1  0.04773000  0.03982000  0.95236000  1.0
  O  O372  1  0.95223000  0.94473000  0.95243000  1.0
  O  O373  1  0.13617000  0.99318000  0.07181000  1.0
  O  O374  1  0.86383000  0.99157000  0.07179000  1.0
  O  O375  1  0.07181000  0.12840000  0.00112000  1.0
  O  O376  1  0.07152000  0.85607000  0.99808000  1.0
  O  O377  1  0.92789000  0.85641000  0.00275000  1.0
  O  O378  1  0.92821000  0.12858000  0.99724000  1.0
  O  O379  1  0.00199000  0.06442000  0.13594000  1.0
  O  O380  1  0.99896000  0.92083000  0.13634000  1.0
  O  O381  1  0.00101000  0.12869000  0.07148000  1.0
  O  O382  1  0.99785000  0.85639000  0.07206000  1.0
  O  O383  1  0.13615000  0.06402000  0.00224000  1.0
  O  O384  1  0.86386000  0.06426000  0.99851000  1.0
  O  O385  1  0.86362000  0.92086000  0.00127000  1.0
  O  O386  1  0.13597000  0.92035000  0.99907000  1.0
  O  O387  1  0.07184000  0.99459000  0.13617000  1.0
  O  O388  1  0.92824000  0.99055000  0.13612000  1.0
  O  O389  1  0.95196000  0.94466000  0.04802000  1.0
  O  O390  1  0.04794000  0.04034000  0.04782000  1.0
  O  O391  1  0.95239000  0.04016000  0.04756000  1.0
  O  O392  1  0.04750000  0.94469000  0.04773000  1.0
