# generated using pymatgen
data_AgH8(CN)2
_symmetry_space_group_name_H-M   'P 1'
_cell_length_a   10.36120000
_cell_length_b   10.56860000
_cell_length_c   6.26690000
_cell_angle_alpha   90.00000000
_cell_angle_beta   114.90700000
_cell_angle_gamma   90.00000000
_symmetry_Int_Tables_number   1
_chemical_formula_structural   AgH8(CN)2
_chemical_formula_sum   'Ag4 H32 C8 N8'
_cell_volume   622.42067650
_cell_formula_units_Z   4
loop_
 _symmetry_equiv_pos_site_id
 _symmetry_equiv_pos_as_xyz
  1  'x, y, z'
loop_
 _atom_site_type_symbol
 _atom_site_label
 _atom_site_symmetry_multiplicity
 _atom_site_fract_x
 _atom_site_fract_y
 _atom_site_fract_z
 _atom_site_occupancy
  Ag  Ag0  1  0.50000000  0.00000000  0.50000000  1.0
  Ag  Ag1  1  0.00000000  0.50000000  0.50000000  1.0
  Ag  Ag2  1  0.50000000  0.00000000  0.00000000  1.0
  Ag  Ag3  1  0.00000000  0.50000000  0.00000000  1.0
  H  H4  1  0.39850000  0.26560000  0.57320000  1.0
  H  H5  1  0.33050000  0.17260000  0.69590000  1.0
  H  H6  1  0.29680000  0.14530000  0.23990000  1.0
  H  H7  1  0.23690000  0.05810000  0.35730000  1.0
  H  H8  1  0.89850000  0.76560000  0.57320000  1.0
  H  H9  1  0.83050000  0.67260000  0.69590000  1.0
  H  H10  1  0.79680000  0.64530000  0.23990000  1.0
  H  H11  1  0.73690000  0.55810000  0.35730000  1.0
  H  H12  1  0.60150000  0.26560000  0.92680000  1.0
  H  H13  1  0.66950000  0.17260000  0.80410000  1.0
  H  H14  1  0.70320000  0.14530000  0.26010000  1.0
  H  H15  1  0.76310000  0.05810000  0.14270000  1.0
  H  H16  1  0.10150000  0.76560000  0.92680000  1.0
  H  H17  1  0.16950000  0.67260000  0.80410000  1.0
  H  H18  1  0.20320000  0.64530000  0.26010000  1.0
  H  H19  1  0.26310000  0.55810000  0.14270000  1.0
  H  H20  1  0.60150000  0.73440000  0.42680000  1.0
  H  H21  1  0.66950000  0.82740000  0.30410000  1.0
  H  H22  1  0.70320000  0.85470000  0.76010000  1.0
  H  H23  1  0.76310000  0.94190000  0.64270000  1.0
  H  H24  1  0.10150000  0.23440000  0.42680000  1.0
  H  H25  1  0.16950000  0.32740000  0.30410000  1.0
  H  H26  1  0.20320000  0.35470000  0.76010000  1.0
  H  H27  1  0.26310000  0.44190000  0.64270000  1.0
  H  H28  1  0.39850000  0.73440000  0.07320000  1.0
  H  H29  1  0.33050000  0.82740000  0.19590000  1.0
  H  H30  1  0.29680000  0.85470000  0.73990000  1.0
  H  H31  1  0.23690000  0.94190000  0.85730000  1.0
  H  H32  1  0.89850000  0.23440000  0.07320000  1.0
  H  H33  1  0.83050000  0.32740000  0.19590000  1.0
  H  H34  1  0.79680000  0.35470000  0.73990000  1.0
  H  H35  1  0.73690000  0.44190000  0.85730000  1.0
  C  C36  1  0.31670000  0.21060000  0.54520000  1.0
  C  C37  1  0.81670000  0.71060000  0.54520000  1.0
  C  C38  1  0.68330000  0.21060000  0.95480000  1.0
  C  C39  1  0.18330000  0.71060000  0.95480000  1.0
  C  C40  1  0.68330000  0.78940000  0.45480000  1.0
  C  C41  1  0.18330000  0.28940000  0.45480000  1.0
  C  C42  1  0.31670000  0.78940000  0.04520000  1.0
  C  C43  1  0.81670000  0.28940000  0.04520000  1.0
  N  N44  1  0.31190000  0.10990000  0.38080000  1.0
  N  N45  1  0.81190000  0.60990000  0.38080000  1.0
  N  N46  1  0.68810000  0.10990000  0.11920000  1.0
  N  N47  1  0.18810000  0.60990000  0.11920000  1.0
  N  N48  1  0.68810000  0.89010000  0.61920000  1.0
  N  N49  1  0.18810000  0.39010000  0.61920000  1.0
  N  N50  1  0.31190000  0.89010000  0.88080000  1.0
  N  N51  1  0.81190000  0.39010000  0.88080000  1.0
