# generated using pymatgen
data_AgH8(CN)2
_symmetry_space_group_name_H-M   'P 1'
_cell_length_a   10.57400000
_cell_length_b   10.34500000
_cell_length_c   6.16600000
_cell_angle_alpha   90.00000000
_cell_angle_beta   114.85000000
_cell_angle_gamma   90.00000000
_symmetry_Int_Tables_number   1
_chemical_formula_structural   AgH8(CN)2
_chemical_formula_sum   'Ag4 H32 C8 N8'
_cell_volume   612.03661583
_cell_formula_units_Z   4
loop_
 _symmetry_equiv_pos_site_id
 _symmetry_equiv_pos_as_xyz
  1  'x, y, z'
loop_
 _atom_site_type_symbol
 _atom_site_label
 _atom_site_symmetry_multiplicity
 _atom_site_fract_x
 _atom_site_fract_y
 _atom_site_fract_z
 _atom_site_occupancy
  Ag  Ag0  1  0.50000000  0.00000000  0.50000000  1.0
  Ag  Ag1  1  0.00000000  0.50000000  0.50000000  1.0
  Ag  Ag2  1  0.50000000  0.00000000  0.00000000  1.0
  Ag  Ag3  1  0.00000000  0.50000000  0.00000000  1.0
  H  H4  1  0.33230000  0.17570000  0.70260000  1.0
  H  H5  1  0.39420000  0.26720000  0.56760000  1.0
  H  H6  1  0.28290000  0.14080000  0.23350000  1.0
  H  H7  1  0.23470000  0.05340000  0.36830000  1.0
  H  H8  1  0.83230000  0.67570000  0.70260000  1.0
  H  H9  1  0.89420000  0.76720000  0.56760000  1.0
  H  H10  1  0.78290000  0.64080000  0.23350000  1.0
  H  H11  1  0.73470000  0.55340000  0.36830000  1.0
  H  H12  1  0.66770000  0.17570000  0.79740000  1.0
  H  H13  1  0.60580000  0.26720000  0.93240000  1.0
  H  H14  1  0.71710000  0.14080000  0.26650000  1.0
  H  H15  1  0.76530000  0.05340000  0.13170000  1.0
  H  H16  1  0.16770000  0.67570000  0.79740000  1.0
  H  H17  1  0.10580000  0.76720000  0.93240000  1.0
  H  H18  1  0.21710000  0.64080000  0.26650000  1.0
  H  H19  1  0.26530000  0.55340000  0.13170000  1.0
  H  H20  1  0.66770000  0.82430000  0.29740000  1.0
  H  H21  1  0.60580000  0.73280000  0.43240000  1.0
  H  H22  1  0.71710000  0.85920000  0.76650000  1.0
  H  H23  1  0.76530000  0.94660000  0.63170000  1.0
  H  H24  1  0.16770000  0.32430000  0.29740000  1.0
  H  H25  1  0.10580000  0.23280000  0.43240000  1.0
  H  H26  1  0.21710000  0.35920000  0.76650000  1.0
  H  H27  1  0.26530000  0.44660000  0.63170000  1.0
  H  H28  1  0.33230000  0.82430000  0.20260000  1.0
  H  H29  1  0.39420000  0.73280000  0.06760000  1.0
  H  H30  1  0.28290000  0.85920000  0.73350000  1.0
  H  H31  1  0.23470000  0.94660000  0.86830000  1.0
  H  H32  1  0.83230000  0.32430000  0.20260000  1.0
  H  H33  1  0.89420000  0.23280000  0.06760000  1.0
  H  H34  1  0.78290000  0.35920000  0.73350000  1.0
  H  H35  1  0.73470000  0.44660000  0.86830000  1.0
  C  C36  1  0.31610000  0.21170000  0.54800000  1.0
  C  C37  1  0.81610000  0.71170000  0.54800000  1.0
  C  C38  1  0.68390000  0.21170000  0.95200000  1.0
  C  C39  1  0.18390000  0.71170000  0.95200000  1.0
  C  C40  1  0.68390000  0.78830000  0.45200000  1.0
  C  C41  1  0.18390000  0.28830000  0.45200000  1.0
  C  C42  1  0.31610000  0.78830000  0.04800000  1.0
  C  C43  1  0.81610000  0.28830000  0.04800000  1.0
  N  N44  1  0.30390000  0.10730000  0.37930000  1.0
  N  N45  1  0.80390000  0.60730000  0.37930000  1.0
  N  N46  1  0.69610000  0.10730000  0.12070000  1.0
  N  N47  1  0.19610000  0.60730000  0.12070000  1.0
  N  N48  1  0.69610000  0.89270000  0.62070000  1.0
  N  N49  1  0.19610000  0.39270000  0.62070000  1.0
  N  N50  1  0.30390000  0.89270000  0.87930000  1.0
  N  N51  1  0.80390000  0.39270000  0.87930000  1.0
