# generated using pymatgen
data_MnH4(C2O)4
_symmetry_space_group_name_H-M   'P 1'
_cell_length_a   9.53470000
_cell_length_b   13.37780000
_cell_length_c   14.47440000
_cell_angle_alpha   79.94770000
_cell_angle_beta   70.76970000
_cell_angle_gamma   69.12300000
_symmetry_Int_Tables_number   1
_chemical_formula_structural   MnH4(C2O)4
_chemical_formula_sum   'Mn6 H24 C48 O24'
_cell_volume   1625.36883008
_cell_formula_units_Z   6
loop_
 _symmetry_equiv_pos_site_id
 _symmetry_equiv_pos_as_xyz
  1  'x, y, z'
loop_
 _atom_site_type_symbol
 _atom_site_label
 _atom_site_symmetry_multiplicity
 _atom_site_fract_x
 _atom_site_fract_y
 _atom_site_fract_z
 _atom_site_occupancy
  Mn  Mn0  1  0.52041000  0.46752000  0.88456000  1.0
  Mn  Mn1  1  0.87249000  0.03248000  0.61544000  1.0
  Mn  Mn2  1  0.47959000  0.53248000  0.11544000  1.0
  Mn  Mn3  1  0.12751000  0.96752000  0.38456000  1.0
  Mn  Mn4  1  0.78888000  0.25000000  0.75000000  1.0
  Mn  Mn5  1  0.21112000  0.75000000  0.25000000  1.0
  H  H6  1  0.77630000  0.09210000  0.97930000  1.0
  H  H7  1  0.88640000  0.95620000  0.08100000  1.0
  H  H8  1  0.79980000  0.16890000  0.27070000  1.0
  H  H9  1  0.67640000  0.30460000  0.17340000  1.0
  H  H10  1  0.44310000  0.64330000  0.58970000  1.0
  H  H11  1  0.57020000  0.32720000  0.56920000  1.0
  H  H12  1  0.84770000  0.40790000  0.52070000  1.0
  H  H13  1  0.92360000  0.54380000  0.41900000  1.0
  H  H14  1  0.23940000  0.33110000  0.22930000  1.0
  H  H15  1  0.15440000  0.19540000  0.32660000  1.0
  H  H16  1  0.67610000  0.85670000  0.91030000  1.0
  H  H17  1  0.46660000  0.17280000  0.93080000  1.0
  H  H18  1  0.22370000  0.90790000  0.02070000  1.0
  H  H19  1  0.11360000  0.04380000  0.91900000  1.0
  H  H20  1  0.20020000  0.83110000  0.72930000  1.0
  H  H21  1  0.32360000  0.69540000  0.82660000  1.0
  H  H22  1  0.55690000  0.35670000  0.41030000  1.0
  H  H23  1  0.42980000  0.67280000  0.43080000  1.0
  H  H24  1  0.15230000  0.59210000  0.47930000  1.0
  H  H25  1  0.07640000  0.45620000  0.58100000  1.0
  H  H26  1  0.76060000  0.66890000  0.77070000  1.0
  H  H27  1  0.84560000  0.80460000  0.67340000  1.0
  H  H28  1  0.32390000  0.14330000  0.08970000  1.0
  H  H29  1  0.53340000  0.82720000  0.06920000  1.0
  C  C30  1  0.65010000  0.30100000  0.99800000  1.0
  C  C31  1  0.71740000  0.21230000  0.06530000  1.0
  C  C32  1  0.77980000  0.10770000  0.03850000  1.0
  C  C33  1  0.84710000  0.02660000  0.09900000  1.0
  C  C34  1  0.85690000  0.04880000  0.18620000  1.0
  C  C35  1  0.79400000  0.15280000  0.21240000  1.0
  C  C36  1  0.72180000  0.23470000  0.15350000  1.0
  C  C37  1  0.94580000  0.96270000  0.24770000  1.0
  C  C38  1  0.51620000  0.46340000  0.69900000  1.0
  C  C39  1  0.50600000  0.48150000  0.59610000  1.0
  C  C40  1  0.46550000  0.58560000  0.55360000  1.0
  C  C41  1  0.54130000  0.39700000  0.54160000  1.0
  C  C42  1  0.94910000  0.19900000  0.50200000  1.0
  C  C43  1  0.99500000  0.28770000  0.43470000  1.0
  C  C44  1  0.92600000  0.39230000  0.46150000  1.0
  C  C45  1  0.97270000  0.47340000  0.40100000  1.0
  C  C46  1  0.09190000  0.45120000  0.31380000  1.0
  C  C47  1  0.15920000  0.34720000  0.28760000  1.0
  C  C48  1  0.11000000  0.26530000  0.34650000  1.0
  C  C49  1  0.15620000  0.53730000  0.25230000  1.0
  C  C50  1  0.67860000  0.03660000  0.80100000  1.0
  C  C51  1  0.58360000  0.01850000  0.90390000  1.0
  C  C52  1  0.60470000  0.91440000  0.94640000  1.0
  C  C53  1  0.47990000  0.10300000  0.95840000  1.0
  C  C54  1  0.34990000  0.69900000  0.00200000  1.0
  C  C55  1  0.28260000  0.78770000  0.93470000  1.0
  C  C56  1  0.22020000  0.89230000  0.96150000  1.0
  C  C57  1  0.15290000  0.97340000  0.90100000  1.0
  C  C58  1  0.14310000  0.95120000  0.81380000  1.0
  C  C59  1  0.20600000  0.84720000  0.78760000  1.0
  C  C60  1  0.27820000  0.76530000  0.84650000  1.0
  C  C61  1  0.05420000  0.03730000  0.75230000  1.0
  C  C62  1  0.48380000  0.53660000  0.30100000  1.0
  C  C63  1  0.49400000  0.51850000  0.40390000  1.0
  C  C64  1  0.53450000  0.41440000  0.44640000  1.0
  C  C65  1  0.45870000  0.60300000  0.45840000  1.0
  C  C66  1  0.05090000  0.80100000  0.49800000  1.0
  C  C67  1  0.00500000  0.71230000  0.56530000  1.0
  C  C68  1  0.07400000  0.60770000  0.53850000  1.0
  C  C69  1  0.02730000  0.52660000  0.59900000  1.0
  C  C70  1  0.90810000  0.54880000  0.68620000  1.0
  C  C71  1  0.84080000  0.65280000  0.71240000  1.0
  C  C72  1  0.89000000  0.73470000  0.65350000  1.0
  C  C73  1  0.84380000  0.46270000  0.74770000  1.0
  C  C74  1  0.32140000  0.96340000  0.19900000  1.0
  C  C75  1  0.41640000  0.98150000  0.09610000  1.0
  C  C76  1  0.39530000  0.08560000  0.05360000  1.0
  C  C77  1  0.52010000  0.89700000  0.04160000  1.0
  O  O78  1  0.57758000  0.39394000  0.02830000  1.0
  O  O79  1  0.46670000  0.54180000  0.74980000  1.0
  O  O80  1  0.57598000  0.36944000  0.73180000  1.0
  O  O81  1  0.66620000  0.28400000  0.91220000  1.0
  O  O82  1  0.01765000  0.87220000  0.21490000  1.0
  O  O83  1  0.94132000  0.98936000  0.32800000  1.0
  O  O84  1  0.99982000  0.10606000  0.47170000  1.0
  O  O85  1  0.75830000  0.95820000  0.75020000  1.0
  O  O86  1  0.67722000  0.13056000  0.76820000  1.0
  O  O87  1  0.86240000  0.21600000  0.58780000  1.0
  O  O88  1  0.10475000  0.62780000  0.28510000  1.0
  O  O89  1  0.25868000  0.51064000  0.17200000  1.0
  O  O90  1  0.42242000  0.60606000  0.97170000  1.0
  O  O91  1  0.53330000  0.45820000  0.25020000  1.0
  O  O92  1  0.42402000  0.63056000  0.26820000  1.0
  O  O93  1  0.33380000  0.71600000  0.08780000  1.0
  O  O94  1  0.98235000  0.12780000  0.78510000  1.0
  O  O95  1  0.05868000  0.01064000  0.67200000  1.0
  O  O96  1  0.00018000  0.89394000  0.52830000  1.0
  O  O97  1  0.24170000  0.04180000  0.24980000  1.0
  O  O98  1  0.32278000  0.86944000  0.23180000  1.0
  O  O99  1  0.13760000  0.78400000  0.41220000  1.0
  O  O100  1  0.89525000  0.37220000  0.71490000  1.0
  O  O101  1  0.74132000  0.48936000  0.82800000  1.0
