# generated using pymatgen
data_Zn2P3H13(C2O3)3
_symmetry_space_group_name_H-M   'P 1'
_cell_length_a   10.86580000
_cell_length_b   16.60500000
_cell_length_c   10.39260000
_cell_angle_alpha   90.00000000
_cell_angle_beta   103.96500000
_cell_angle_gamma   90.00000000
_symmetry_Int_Tables_number   1
_chemical_formula_structural   Zn2P3H13(C2O3)3
_chemical_formula_sum   'Zn8 P12 H52 C24 O36'
_cell_volume   1819.67981238
_cell_formula_units_Z   4
loop_
 _symmetry_equiv_pos_site_id
 _symmetry_equiv_pos_as_xyz
  1  'x, y, z'
loop_
 _atom_site_type_symbol
 _atom_site_label
 _atom_site_symmetry_multiplicity
 _atom_site_fract_x
 _atom_site_fract_y
 _atom_site_fract_z
 _atom_site_occupancy
  Zn  Zn0  1  0.05502000  0.16658000  0.40351000  1.0
  Zn  Zn1  1  0.13487000  0.83531000  0.31690000  1.0
  Zn  Zn2  1  0.94498000  0.66658000  0.09649000  1.0
  Zn  Zn3  1  0.86513000  0.33531000  0.18310000  1.0
  Zn  Zn4  1  0.94498000  0.83342000  0.59649000  1.0
  Zn  Zn5  1  0.86513000  0.16469000  0.68310000  1.0
  Zn  Zn6  1  0.05502000  0.33342000  0.90351000  1.0
  Zn  Zn7  1  0.13487000  0.66469000  0.81690000  1.0
  P  P8  1  0.21256000  0.00579000  0.45550000  1.0
  P  P9  1  0.13789000  0.22292000  0.69260000  1.0
  P  P10  1  0.79138000  0.26003000  0.90951000  1.0
  P  P11  1  0.78744000  0.50579000  0.04450000  1.0
  P  P12  1  0.86211000  0.72292000  0.80740000  1.0
  P  P13  1  0.20862000  0.76003000  0.59049000  1.0
  P  P14  1  0.78744000  0.99421000  0.54450000  1.0
  P  P15  1  0.86211000  0.77708000  0.30740000  1.0
  P  P16  1  0.20862000  0.73997000  0.09049000  1.0
  P  P17  1  0.21256000  0.49421000  0.95550000  1.0
  P  P18  1  0.13789000  0.27708000  0.19260000  1.0
  P  P19  1  0.79138000  0.23997000  0.40951000  1.0
  H  H20  1  0.19470000  0.93260000  0.60180000  1.0
  H  H21  1  0.33760000  0.11710000  0.51660000  1.0
  H  H22  1  0.35310000  0.08500000  0.38020000  1.0
  H  H23  1  0.47400000  0.01320000  0.62330000  1.0
  H  H24  1  0.54100000  0.07580000  0.55050000  1.0
  H  H25  1  0.29800000  0.19950000  0.87900000  1.0
  H  H26  1  0.30870000  0.13880000  0.76700000  1.0
  H  H27  1  0.38320000  0.30130000  0.76640000  1.0
  H  H28  1  0.40120000  0.23690000  0.66210000  1.0
  H  H29  1  0.63270000  0.27820000  0.72300000  1.0
  H  H30  1  0.61200000  0.33480000  0.83600000  1.0
  H  H31  1  0.55200000  0.16900000  0.82300000  1.0
  H  H32  1  0.52850000  0.22710000  0.93350000  1.0
  H  H33  1  0.80530000  0.43260000  0.89820000  1.0
  H  H34  1  0.66240000  0.61710000  0.98340000  1.0
  H  H35  1  0.64690000  0.58500000  0.11980000  1.0
  H  H36  1  0.52600000  0.51320000  0.87670000  1.0
  H  H37  1  0.45900000  0.57580000  0.94950000  1.0
  H  H38  1  0.70200000  0.69950000  0.62100000  1.0
  H  H39  1  0.69130000  0.63880000  0.73300000  1.0
  H  H40  1  0.61680000  0.80130000  0.73360000  1.0
  H  H41  1  0.59880000  0.73690000  0.83790000  1.0
  H  H42  1  0.36730000  0.77820000  0.77700000  1.0
  H  H43  1  0.38800000  0.83480000  0.66400000  1.0
  H  H44  1  0.44800000  0.66900000  0.67700000  1.0
  H  H45  1  0.47150000  0.72710000  0.56650000  1.0
  H  H46  1  0.80530000  0.06740000  0.39820000  1.0
  H  H47  1  0.66240000  0.88290000  0.48340000  1.0
  H  H48  1  0.64690000  0.91500000  0.61980000  1.0
  H  H49  1  0.52600000  0.98680000  0.37670000  1.0
  H  H50  1  0.45900000  0.92420000  0.44950000  1.0
  H  H51  1  0.70200000  0.80050000  0.12100000  1.0
  H  H52  1  0.69130000  0.86120000  0.23300000  1.0
  H  H53  1  0.61680000  0.69870000  0.23360000  1.0
  H  H54  1  0.59880000  0.76310000  0.33790000  1.0
  H  H55  1  0.36730000  0.72180000  0.27700000  1.0
  H  H56  1  0.38800000  0.66520000  0.16400000  1.0
  H  H57  1  0.44800000  0.83100000  0.17700000  1.0
  H  H58  1  0.47150000  0.77290000  0.06650000  1.0
  H  H59  1  0.19470000  0.56740000  0.10180000  1.0
  H  H60  1  0.33760000  0.38290000  0.01660000  1.0
  H  H61  1  0.35310000  0.41500000  0.88020000  1.0
  H  H62  1  0.47400000  0.48680000  0.12330000  1.0
  H  H63  1  0.54100000  0.42420000  0.05050000  1.0
  H  H64  1  0.29800000  0.30050000  0.37900000  1.0
  H  H65  1  0.30870000  0.36120000  0.26700000  1.0
  H  H66  1  0.38320000  0.19870000  0.26640000  1.0
  H  H67  1  0.40120000  0.26310000  0.16210000  1.0
  H  H68  1  0.63270000  0.22180000  0.22300000  1.0
  H  H69  1  0.61200000  0.16520000  0.33600000  1.0
  H  H70  1  0.55200000  0.33100000  0.32300000  1.0
  H  H71  1  0.52850000  0.27290000  0.43350000  1.0
  C  C72  1  0.34980000  0.06870000  0.46890000  1.0
  C  C73  1  0.47820000  0.03310000  0.53670000  1.0
  C  C74  1  0.29440000  0.19480000  0.78510000  1.0
  C  C75  1  0.40030000  0.24480000  0.75440000  1.0
  C  C76  1  0.63370000  0.28030000  0.81650000  1.0
  C  C77  1  0.53090000  0.22400000  0.84100000  1.0
  C  C78  1  0.65020000  0.56870000  0.03110000  1.0
  C  C79  1  0.52180000  0.53310000  0.96330000  1.0
  C  C80  1  0.70560000  0.69480000  0.71490000  1.0
  C  C81  1  0.59970000  0.74480000  0.74560000  1.0
  C  C82  1  0.36630000  0.78030000  0.68350000  1.0
  C  C83  1  0.46910000  0.72400000  0.65900000  1.0
  C  C84  1  0.65020000  0.93130000  0.53110000  1.0
  C  C85  1  0.52180000  0.96690000  0.46330000  1.0
  C  C86  1  0.70560000  0.80520000  0.21490000  1.0
  C  C87  1  0.59970000  0.75520000  0.24560000  1.0
  C  C88  1  0.36630000  0.71970000  0.18350000  1.0
  C  C89  1  0.46910000  0.77600000  0.15900000  1.0
  C  C90  1  0.34980000  0.43130000  0.96890000  1.0
  C  C91  1  0.47820000  0.46690000  0.03670000  1.0
  C  C92  1  0.29440000  0.30520000  0.28510000  1.0
  C  C93  1  0.40030000  0.25520000  0.25440000  1.0
  C  C94  1  0.63370000  0.21970000  0.31650000  1.0
  C  C95  1  0.53090000  0.27600000  0.34100000  1.0
  O  O96  1  0.22010000  0.93640000  0.36680000  1.0
  O  O97  1  0.09330000  0.05410000  0.40950000  1.0
  O  O98  1  0.22580000  0.97760000  0.60170000  1.0
  O  O99  1  0.04790000  0.15720000  0.71540000  1.0
  O  O100  1  0.14370000  0.23140000  0.54840000  1.0
  O  O101  1  0.10290000  0.30600000  0.74030000  1.0
  O  O102  1  0.87170000  0.33150000  0.88090000  1.0
  O  O103  1  0.79400000  0.25350000  0.05520000  1.0
  O  O104  1  0.83590000  0.18080000  0.85980000  1.0
  O  O105  1  0.77990000  0.43640000  0.13320000  1.0
  O  O106  1  0.90670000  0.55410000  0.09050000  1.0
  O  O107  1  0.77420000  0.47760000  0.89830000  1.0
  O  O108  1  0.95210000  0.65720000  0.78460000  1.0
  O  O109  1  0.85630000  0.73140000  0.95160000  1.0
  O  O110  1  0.89710000  0.80600000  0.75970000  1.0
  O  O111  1  0.12830000  0.83150000  0.61910000  1.0
  O  O112  1  0.20600000  0.75350000  0.44480000  1.0
  O  O113  1  0.16410000  0.68080000  0.64020000  1.0
  O  O114  1  0.77990000  0.06360000  0.63320000  1.0
  O  O115  1  0.90670000  0.94590000  0.59050000  1.0
  O  O116  1  0.77420000  0.02240000  0.39830000  1.0
  O  O117  1  0.95210000  0.84280000  0.28460000  1.0
  O  O118  1  0.85630000  0.76860000  0.45160000  1.0
  O  O119  1  0.89710000  0.69400000  0.25970000  1.0
  O  O120  1  0.12830000  0.66850000  0.11910000  1.0
  O  O121  1  0.20600000  0.74650000  0.94480000  1.0
  O  O122  1  0.16410000  0.81920000  0.14020000  1.0
  O  O123  1  0.22010000  0.56360000  0.86680000  1.0
  O  O124  1  0.09330000  0.44590000  0.90950000  1.0
  O  O125  1  0.22580000  0.52240000  0.10170000  1.0
  O  O126  1  0.04790000  0.34280000  0.21540000  1.0
  O  O127  1  0.14370000  0.26860000  0.04840000  1.0
  O  O128  1  0.10290000  0.19400000  0.24030000  1.0
  O  O129  1  0.87170000  0.16850000  0.38090000  1.0
  O  O130  1  0.79400000  0.24650000  0.55520000  1.0
  O  O131  1  0.83590000  0.31920000  0.35980000  1.0
