# generated using pymatgen
data_V2NiH12C15N3O4
_symmetry_space_group_name_H-M   'P 1'
_cell_length_a   11.24020000
_cell_length_b   11.53660000
_cell_length_c   16.19630000
_cell_angle_alpha   104.94500000
_cell_angle_beta   110.30400000
_cell_angle_gamma   90.00000000
_symmetry_Int_Tables_number   1
_chemical_formula_structural   V2NiH12C15N3O4
_chemical_formula_sum   'V8 Ni4 H48 C60 N12 O16'
_cell_volume   1893.80335990
_cell_formula_units_Z   4
loop_
 _symmetry_equiv_pos_site_id
 _symmetry_equiv_pos_as_xyz
  1  'x, y, z'
loop_
 _atom_site_type_symbol
 _atom_site_label
 _atom_site_symmetry_multiplicity
 _atom_site_fract_x
 _atom_site_fract_y
 _atom_site_fract_z
 _atom_site_occupancy
  V  V0  1  0.19527000  0.17863000  0.21366000  1.0
  V  V1  1  0.05129000  0.43583000  0.28966000  1.0
  V  V2  1  0.98161000  0.32137000  0.78634000  1.0
  V  V3  1  0.76163000  0.06417000  0.71034000  1.0
  V  V4  1  0.80473000  0.82137000  0.78634000  1.0
  V  V5  1  0.94871000  0.56417000  0.71034000  1.0
  V  V6  1  0.01839000  0.67863000  0.21366000  1.0
  V  V7  1  0.23837000  0.93583000  0.28966000  1.0
  Ni  Ni8  1  0.00000000  0.50000000  0.50000000  1.0
  Ni  Ni9  1  0.50000000  0.00000000  0.50000000  1.0
  Ni  Ni10  1  0.00000000  0.50000000  0.00000000  1.0
  Ni  Ni11  1  0.00000000  0.00000000  0.00000000  1.0
  H  H12  1  0.14000000  0.35900000  0.64000000  1.0
  H  H13  1  0.32600000  0.36300000  0.73600000  1.0
  H  H14  1  0.47300000  0.63600000  0.68200000  1.0
  H  H15  1  0.26400000  0.64000000  0.57800000  1.0
  H  H16  1  0.56700000  0.31000000  0.76400000  1.0
  H  H17  1  0.78100000  0.32200000  0.87000000  1.0
  H  H18  1  0.80600000  0.66900000  0.94200000  1.0
  H  H19  1  0.61700000  0.67100000  0.84400000  1.0
  H  H20  1  0.87700000  0.31300000  0.56000000  1.0
  H  H21  1  0.87700000  0.12300000  0.57400000  1.0
  H  H22  1  0.10130000  0.06550000  0.40700000  1.0
  H  H23  1  0.08200000  0.25600000  0.40000000  1.0
  H  H24  1  0.50000000  0.14100000  0.36000000  1.0
  H  H25  1  0.59000000  0.13700000  0.26400000  1.0
  H  H26  1  0.79100000  0.86400000  0.31800000  1.0
  H  H27  1  0.68600000  0.86000000  0.42200000  1.0
  H  H28  1  0.80300000  0.19000000  0.23600000  1.0
  H  H29  1  0.91100000  0.17800000  0.13000000  1.0
  H  H30  1  0.86400000  0.83100000  0.05800000  1.0
  H  H31  1  0.77300000  0.82900000  0.15600000  1.0
  H  H32  1  0.31700000  0.18700000  0.44000000  1.0
  H  H33  1  0.30300000  0.37700000  0.42600000  1.0
  H  H34  1  0.69430000  0.43450000  0.59300000  1.0
  H  H35  1  0.68200000  0.24400000  0.60000000  1.0
  H  H36  1  0.86000000  0.64100000  0.36000000  1.0
  H  H37  1  0.67400000  0.63700000  0.26400000  1.0
  H  H38  1  0.52700000  0.36400000  0.31800000  1.0
  H  H39  1  0.73600000  0.36000000  0.42200000  1.0
  H  H40  1  0.43300000  0.69000000  0.23600000  1.0
  H  H41  1  0.21900000  0.67800000  0.13000000  1.0
  H  H42  1  0.19400000  0.33100000  0.05800000  1.0
  H  H43  1  0.38300000  0.32900000  0.15600000  1.0
  H  H44  1  0.12300000  0.68700000  0.44000000  1.0
  H  H45  1  0.12300000  0.87700000  0.42600000  1.0
  H  H46  1  0.89870000  0.93450000  0.59300000  1.0
  H  H47  1  0.91800000  0.74400000  0.60000000  1.0
  H  H48  1  0.50000000  0.85900000  0.64000000  1.0
  H  H49  1  0.41000000  0.86300000  0.73600000  1.0
  H  H50  1  0.20900000  0.13600000  0.68200000  1.0
  H  H51  1  0.31400000  0.14000000  0.57800000  1.0
  H  H52  1  0.19700000  0.81000000  0.76400000  1.0
  H  H53  1  0.08900000  0.82200000  0.87000000  1.0
  H  H54  1  0.13600000  0.16900000  0.94200000  1.0
  H  H55  1  0.22700000  0.17100000  0.84400000  1.0
  H  H56  1  0.68300000  0.81300000  0.56000000  1.0
  H  H57  1  0.69700000  0.62300000  0.57400000  1.0
  H  H58  1  0.30570000  0.56550000  0.40700000  1.0
  H  H59  1  0.31800000  0.75600000  0.40000000  1.0
  C  C60  1  0.21110000  0.41890000  0.64760000  1.0
  C  C61  1  0.32950000  0.41420000  0.71120000  1.0
  C  C62  1  0.42990000  0.49710000  0.72880000  1.0
  C  C63  1  0.40450000  0.58330000  0.67920000  1.0
  C  C64  1  0.28420000  0.58050000  0.61640000  1.0
  C  C65  1  0.55910000  0.49470000  0.79540000  1.0
  C  C66  1  0.61020000  0.38810000  0.80700000  1.0
  C  C67  1  0.73330000  0.39240000  0.86740000  1.0
  C  C68  1  0.75810000  0.59700000  0.90560000  1.0
  C  C69  1  0.63550000  0.60110000  0.84760000  1.0
  C  C70  1  0.91675000  0.25720000  0.52770000  1.0
  C  C71  1  0.92340000  0.14090000  0.53620000  1.0
  C  C72  1  0.99202000  0.06200000  0.49404000  1.0
  C  C73  1  0.04520000  0.10600000  0.44200000  1.0
  C  C74  1  0.03290000  0.22360000  0.43480000  1.0
  C  C75  1  0.56350000  0.08110000  0.35240000  1.0
  C  C76  1  0.61830000  0.08580000  0.28880000  1.0
  C  C77  1  0.70110000  0.00290000  0.27120000  1.0
  C  C78  1  0.72530000  0.91670000  0.32080000  1.0
  C  C79  1  0.66780000  0.91950000  0.38360000  1.0
  C  C80  1  0.76370000  0.00530000  0.20460000  1.0
  C  C81  1  0.80320000  0.11190000  0.19300000  1.0
  C  C82  1  0.86590000  0.10760000  0.13260000  1.0
  C  C83  1  0.85250000  0.90300000  0.09440000  1.0
  C  C84  1  0.78790000  0.89890000  0.15240000  1.0
  C  C85  1  0.38905000  0.24280000  0.47230000  1.0
  C  C86  1  0.38720000  0.35910000  0.46380000  1.0
  C  C87  1  0.49798000  0.43800000  0.50596000  1.0
  C  C88  1  0.60320000  0.39400000  0.55800000  1.0
  C  C89  1  0.59810000  0.27640000  0.56520000  1.0
  C  C90  1  0.78890000  0.58110000  0.35240000  1.0
  C  C91  1  0.67050000  0.58580000  0.28880000  1.0
  C  C92  1  0.57010000  0.50290000  0.27120000  1.0
  C  C93  1  0.59550000  0.41670000  0.32080000  1.0
  C  C94  1  0.71580000  0.41950000  0.38360000  1.0
  C  C95  1  0.44090000  0.50530000  0.20460000  1.0
  C  C96  1  0.38980000  0.61190000  0.19300000  1.0
  C  C97  1  0.26670000  0.60760000  0.13260000  1.0
  C  C98  1  0.24190000  0.40300000  0.09440000  1.0
  C  C99  1  0.36450000  0.39890000  0.15240000  1.0
  C  C100  1  0.08325000  0.74280000  0.47230000  1.0
  C  C101  1  0.07660000  0.85910000  0.46380000  1.0
  C  C102  1  0.00798000  0.93800000  0.50596000  1.0
  C  C103  1  0.95480000  0.89400000  0.55800000  1.0
  C  C104  1  0.96710000  0.77640000  0.56520000  1.0
  C  C105  1  0.43650000  0.91890000  0.64760000  1.0
  C  C106  1  0.38170000  0.91420000  0.71120000  1.0
  C  C107  1  0.29890000  0.99710000  0.72880000  1.0
  C  C108  1  0.27470000  0.08330000  0.67920000  1.0
  C  C109  1  0.33220000  0.08050000  0.61640000  1.0
  C  C110  1  0.23630000  0.99470000  0.79540000  1.0
  C  C111  1  0.19680000  0.88810000  0.80700000  1.0
  C  C112  1  0.13410000  0.89240000  0.86740000  1.0
  C  C113  1  0.14750000  0.09700000  0.90560000  1.0
  C  C114  1  0.21210000  0.10110000  0.84760000  1.0
  C  C115  1  0.61095000  0.75720000  0.52770000  1.0
  C  C116  1  0.61280000  0.64090000  0.53620000  1.0
  C  C117  1  0.50202000  0.56200000  0.49404000  1.0
  C  C118  1  0.39680000  0.60600000  0.44200000  1.0
  C  C119  1  0.40190000  0.72360000  0.43480000  1.0
  N  N120  1  0.18718000  0.49880000  0.59916000  1.0
  N  N121  1  0.97184000  0.30170000  0.47948000  1.0
  N  N122  1  0.80819000  0.49510000  0.91698000  1.0
  N  N123  1  0.58802000  0.00120000  0.40084000  1.0
  N  N124  1  0.49236000  0.19830000  0.52052000  1.0
  N  N125  1  0.89121000  0.00490000  0.08302000  1.0
  N  N126  1  0.81282000  0.50120000  0.40084000  1.0
  N  N127  1  0.02816000  0.69830000  0.52052000  1.0
  N  N128  1  0.19181000  0.50490000  0.08302000  1.0
  N  N129  1  0.41198000  0.99880000  0.59916000  1.0
  N  N130  1  0.50764000  0.80170000  0.47948000  1.0
  N  N131  1  0.10879000  0.99510000  0.91698000  1.0
  O  O132  1  0.07469000  0.47190000  0.40058000  1.0
  O  O133  1  0.12186000  0.13660000  0.10052000  1.0
  O  O134  1  0.09965000  0.56560000  0.26310000  1.0
  O  O135  1  0.14641000  0.31790000  0.26482000  1.0
  O  O136  1  0.67411000  0.02810000  0.59942000  1.0
  O  O137  1  0.02134000  0.36340000  0.89948000  1.0
  O  O138  1  0.83655000  0.93440000  0.73690000  1.0
  O  O139  1  0.88159000  0.18210000  0.73518000  1.0
  O  O140  1  0.92531000  0.52810000  0.59942000  1.0
  O  O141  1  0.87814000  0.86340000  0.89948000  1.0
  O  O142  1  0.90035000  0.43440000  0.73690000  1.0
  O  O143  1  0.85359000  0.68210000  0.73518000  1.0
  O  O144  1  0.32589000  0.97190000  0.40058000  1.0
  O  O145  1  0.97866000  0.63660000  0.10052000  1.0
  O  O146  1  0.16345000  0.06560000  0.26310000  1.0
  O  O147  1  0.11841000  0.81790000  0.26482000  1.0
