# generated using pymatgen
data_V2P2H7C3O7
_symmetry_space_group_name_H-M   'P 1'
_cell_length_a   15.55270000
_cell_length_b   10.08410000
_cell_length_c   18.78130000
_cell_angle_alpha   90.00000000
_cell_angle_beta   104.42300000
_cell_angle_gamma   90.00000000
_symmetry_Int_Tables_number   1
_chemical_formula_structural   V2P2H7C3O7
_chemical_formula_sum   'V16 P16 H56 C24 O56'
_cell_volume   2852.73022538
_cell_formula_units_Z   8
loop_
 _symmetry_equiv_pos_site_id
 _symmetry_equiv_pos_as_xyz
  1  'x, y, z'
loop_
 _atom_site_type_symbol
 _atom_site_label
 _atom_site_symmetry_multiplicity
 _atom_site_fract_x
 _atom_site_fract_y
 _atom_site_fract_z
 _atom_site_occupancy
  V  V0  1  0.24928000  0.96938000  0.28488000  1.0
  V  V1  1  0.83101000  0.89017000  0.41430000  1.0
  V  V2  1  0.74928000  0.46938000  0.28488000  1.0
  V  V3  1  0.33101000  0.39017000  0.41430000  1.0
  V  V4  1  0.75072000  0.96938000  0.21512000  1.0
  V  V5  1  0.16899000  0.89017000  0.08570000  1.0
  V  V6  1  0.25072000  0.46938000  0.21512000  1.0
  V  V7  1  0.66899000  0.39017000  0.08570000  1.0
  V  V8  1  0.75072000  0.03062000  0.71512000  1.0
  V  V9  1  0.16899000  0.10983000  0.58570000  1.0
  V  V10  1  0.25072000  0.53062000  0.71512000  1.0
  V  V11  1  0.66899000  0.60983000  0.58570000  1.0
  V  V12  1  0.24928000  0.03062000  0.78488000  1.0
  V  V13  1  0.83101000  0.10983000  0.91430000  1.0
  V  V14  1  0.74928000  0.53062000  0.78488000  1.0
  V  V15  1  0.33101000  0.60983000  0.91430000  1.0
  P  P16  1  0.20151000  0.12821000  0.41982000  1.0
  P  P17  1  0.83145000  0.18035000  0.34034000  1.0
  P  P18  1  0.70151000  0.62821000  0.41982000  1.0
  P  P19  1  0.33145000  0.68035000  0.34034000  1.0
  P  P20  1  0.79849000  0.12821000  0.08018000  1.0
  P  P21  1  0.16855000  0.18035000  0.15966000  1.0
  P  P22  1  0.29849000  0.62821000  0.08018000  1.0
  P  P23  1  0.66855000  0.68035000  0.15966000  1.0
  P  P24  1  0.79849000  0.87179000  0.58018000  1.0
  P  P25  1  0.16855000  0.81965000  0.65966000  1.0
  P  P26  1  0.29849000  0.37179000  0.58018000  1.0
  P  P27  1  0.66855000  0.31965000  0.65966000  1.0
  P  P28  1  0.20151000  0.87179000  0.91982000  1.0
  P  P29  1  0.83145000  0.81965000  0.84034000  1.0
  P  P30  1  0.70151000  0.37179000  0.91982000  1.0
  P  P31  1  0.33145000  0.31965000  0.84034000  1.0
  H  H32  1  0.10650000  0.29870000  0.43000000  1.0
  H  H33  1  0.10840000  0.27840000  0.34600000  1.0
  H  H34  1  0.00960000  0.10100000  0.33210000  1.0
  H  H35  1  0.01820000  0.09450000  0.41890000  1.0
  H  H36  1  0.94510000  0.29790000  0.41600000  1.0
  H  H37  1  0.94550000  0.32010000  0.33190000  1.0
  H  H38  1  0.22700000  0.80100000  0.20030000  1.0
  H  H39  1  0.60650000  0.79870000  0.43000000  1.0
  H  H40  1  0.60840000  0.77840000  0.34600000  1.0
  H  H41  1  0.50960000  0.60100000  0.33210000  1.0
  H  H42  1  0.51820000  0.59450000  0.41890000  1.0
  H  H43  1  0.44510000  0.79790000  0.41600000  1.0
  H  H44  1  0.44550000  0.82010000  0.33190000  1.0
  H  H45  1  0.72700000  0.30100000  0.20030000  1.0
  H  H46  1  0.89350000  0.29870000  0.07000000  1.0
  H  H47  1  0.89160000  0.27840000  0.15400000  1.0
  H  H48  1  0.99040000  0.10100000  0.16790000  1.0
  H  H49  1  0.98180000  0.09450000  0.08110000  1.0
  H  H50  1  0.05490000  0.29790000  0.08400000  1.0
  H  H51  1  0.05450000  0.32010000  0.16810000  1.0
  H  H52  1  0.77300000  0.80100000  0.29970000  1.0
  H  H53  1  0.39350000  0.79870000  0.07000000  1.0
  H  H54  1  0.39160000  0.77840000  0.15400000  1.0
  H  H55  1  0.49040000  0.60100000  0.16790000  1.0
  H  H56  1  0.48180000  0.59450000  0.08110000  1.0
  H  H57  1  0.55490000  0.79790000  0.08400000  1.0
  H  H58  1  0.55450000  0.82010000  0.16810000  1.0
  H  H59  1  0.27300000  0.30100000  0.29970000  1.0
  H  H60  1  0.89350000  0.70130000  0.57000000  1.0
  H  H61  1  0.89160000  0.72160000  0.65400000  1.0
  H  H62  1  0.99040000  0.89900000  0.66790000  1.0
  H  H63  1  0.98180000  0.90550000  0.58110000  1.0
  H  H64  1  0.05490000  0.70210000  0.58400000  1.0
  H  H65  1  0.05450000  0.67990000  0.66810000  1.0
  H  H66  1  0.77300000  0.19900000  0.79970000  1.0
  H  H67  1  0.39350000  0.20130000  0.57000000  1.0
  H  H68  1  0.39160000  0.22160000  0.65400000  1.0
  H  H69  1  0.49040000  0.39900000  0.66790000  1.0
  H  H70  1  0.48180000  0.40550000  0.58110000  1.0
  H  H71  1  0.55490000  0.20210000  0.58400000  1.0
  H  H72  1  0.55450000  0.17990000  0.66810000  1.0
  H  H73  1  0.27300000  0.69900000  0.79970000  1.0
  H  H74  1  0.10650000  0.70130000  0.93000000  1.0
  H  H75  1  0.10840000  0.72160000  0.84600000  1.0
  H  H76  1  0.00960000  0.89900000  0.83210000  1.0
  H  H77  1  0.01820000  0.90550000  0.91890000  1.0
  H  H78  1  0.94510000  0.70210000  0.91600000  1.0
  H  H79  1  0.94550000  0.67990000  0.83190000  1.0
  H  H80  1  0.22700000  0.19900000  0.70030000  1.0
  H  H81  1  0.60650000  0.20130000  0.93000000  1.0
  H  H82  1  0.60840000  0.22160000  0.84600000  1.0
  H  H83  1  0.50960000  0.39900000  0.83210000  1.0
  H  H84  1  0.51820000  0.40550000  0.91890000  1.0
  H  H85  1  0.44510000  0.20210000  0.91600000  1.0
  H  H86  1  0.44550000  0.17990000  0.83190000  1.0
  H  H87  1  0.72700000  0.69900000  0.70030000  1.0
  C  C88  1  0.10549000  0.23119000  0.39149000  1.0
  C  C89  1  0.01730000  0.15510000  0.37729000  1.0
  C  C90  1  0.93988000  0.25200000  0.36848000  1.0
  C  C91  1  0.60549000  0.73119000  0.39149000  1.0
  C  C92  1  0.51730000  0.65510000  0.37729000  1.0
  C  C93  1  0.43988000  0.75200000  0.36848000  1.0
  C  C94  1  0.89451000  0.23119000  0.10851000  1.0
  C  C95  1  0.98270000  0.15510000  0.12271000  1.0
  C  C96  1  0.06012000  0.25200000  0.13152000  1.0
  C  C97  1  0.39451000  0.73119000  0.10851000  1.0
  C  C98  1  0.48270000  0.65510000  0.12271000  1.0
  C  C99  1  0.56012000  0.75200000  0.13152000  1.0
  C  C100  1  0.89451000  0.76881000  0.60851000  1.0
  C  C101  1  0.98270000  0.84490000  0.62271000  1.0
  C  C102  1  0.06012000  0.74800000  0.63152000  1.0
  C  C103  1  0.39451000  0.26881000  0.60851000  1.0
  C  C104  1  0.48270000  0.34490000  0.62271000  1.0
  C  C105  1  0.56012000  0.24800000  0.63152000  1.0
  C  C106  1  0.10549000  0.76881000  0.89149000  1.0
  C  C107  1  0.01730000  0.84490000  0.87729000  1.0
  C  C108  1  0.93988000  0.74800000  0.86848000  1.0
  C  C109  1  0.60549000  0.26881000  0.89149000  1.0
  C  C110  1  0.51730000  0.34490000  0.87729000  1.0
  C  C111  1  0.43988000  0.24800000  0.86848000  1.0
  O  O112  1  0.81674000  0.08138000  0.39774000  1.0
  O  O113  1  0.28366000  0.21078000  0.42164000  1.0
  O  O114  1  0.20246000  0.06650000  0.49461000  1.0
  O  O115  1  0.19472000  0.01211000  0.36587000  1.0
  O  O116  1  0.82489000  0.11553000  0.26550000  1.0
  O  O117  1  0.76455000  0.29342000  0.33479000  1.0
  O  O118  1  0.21641000  0.86748000  0.19255000  1.0
  O  O119  1  0.31674000  0.58138000  0.39774000  1.0
  O  O120  1  0.78366000  0.71078000  0.42164000  1.0
  O  O121  1  0.70246000  0.56650000  0.49461000  1.0
  O  O122  1  0.69472000  0.51211000  0.36587000  1.0
  O  O123  1  0.32489000  0.61553000  0.26550000  1.0
  O  O124  1  0.26455000  0.79342000  0.33479000  1.0
  O  O125  1  0.71641000  0.36748000  0.19255000  1.0
  O  O126  1  0.18326000  0.08138000  0.10226000  1.0
  O  O127  1  0.71634000  0.21078000  0.07836000  1.0
  O  O128  1  0.79754000  0.06650000  0.00539000  1.0
  O  O129  1  0.80528000  0.01211000  0.13413000  1.0
  O  O130  1  0.17511000  0.11553000  0.23450000  1.0
  O  O131  1  0.23545000  0.29342000  0.16521000  1.0
  O  O132  1  0.78359000  0.86748000  0.30745000  1.0
  O  O133  1  0.68326000  0.58138000  0.10226000  1.0
  O  O134  1  0.21634000  0.71078000  0.07836000  1.0
  O  O135  1  0.29754000  0.56650000  0.00539000  1.0
  O  O136  1  0.30528000  0.51211000  0.13413000  1.0
  O  O137  1  0.67511000  0.61553000  0.23450000  1.0
  O  O138  1  0.73545000  0.79342000  0.16521000  1.0
  O  O139  1  0.28359000  0.36748000  0.30745000  1.0
  O  O140  1  0.18326000  0.91862000  0.60226000  1.0
  O  O141  1  0.71634000  0.78922000  0.57836000  1.0
  O  O142  1  0.79754000  0.93350000  0.50539000  1.0
  O  O143  1  0.80528000  0.98789000  0.63413000  1.0
  O  O144  1  0.17511000  0.88447000  0.73450000  1.0
  O  O145  1  0.23545000  0.70658000  0.66521000  1.0
  O  O146  1  0.78359000  0.13252000  0.80745000  1.0
  O  O147  1  0.68326000  0.41862000  0.60226000  1.0
  O  O148  1  0.21634000  0.28922000  0.57836000  1.0
  O  O149  1  0.29754000  0.43350000  0.50539000  1.0
  O  O150  1  0.30528000  0.48789000  0.63413000  1.0
  O  O151  1  0.67511000  0.38447000  0.73450000  1.0
  O  O152  1  0.73545000  0.20658000  0.66521000  1.0
  O  O153  1  0.28359000  0.63252000  0.80745000  1.0
  O  O154  1  0.81674000  0.91862000  0.89774000  1.0
  O  O155  1  0.28366000  0.78922000  0.92164000  1.0
  O  O156  1  0.20246000  0.93350000  0.99461000  1.0
  O  O157  1  0.19472000  0.98789000  0.86587000  1.0
  O  O158  1  0.82489000  0.88447000  0.76550000  1.0
  O  O159  1  0.76455000  0.70658000  0.83479000  1.0
  O  O160  1  0.21641000  0.13252000  0.69255000  1.0
  O  O161  1  0.31674000  0.41862000  0.89774000  1.0
  O  O162  1  0.78366000  0.28922000  0.92164000  1.0
  O  O163  1  0.70246000  0.43350000  0.99461000  1.0
  O  O164  1  0.69472000  0.48789000  0.86587000  1.0
  O  O165  1  0.32489000  0.38447000  0.76550000  1.0
  O  O166  1  0.26455000  0.20658000  0.83479000  1.0
  O  O167  1  0.71641000  0.63252000  0.69255000  1.0
