# generated using pymatgen
data_Sr3Ag6H22C36S6(N3O7)2
_symmetry_space_group_name_H-M   'P 1'
_cell_length_a   12.63560000
_cell_length_b   12.69630000
_cell_length_c   22.17550000
_cell_angle_alpha   84.86400000
_cell_angle_beta   88.08800000
_cell_angle_gamma   72.98000000
_symmetry_Int_Tables_number   1
_chemical_formula_structural   Sr3Ag6H22C36S6(N3O7)2
_chemical_formula_sum   'Sr6 Ag12 H44 C72 S12 N12 O28'
_cell_volume   3387.94951177
_cell_formula_units_Z   2
loop_
 _symmetry_equiv_pos_site_id
 _symmetry_equiv_pos_as_xyz
  1  'x, y, z'
loop_
 _atom_site_type_symbol
 _atom_site_label
 _atom_site_symmetry_multiplicity
 _atom_site_fract_x
 _atom_site_fract_y
 _atom_site_fract_z
 _atom_site_occupancy
  Sr  Sr0  1  0.83904000  0.04292000  0.45728000  1.0
  Sr  Sr1  1  0.86945000  0.89220000  0.18048000  1.0
  Sr  Sr2  1  0.64513000  0.94627000  0.04992000  1.0
  Sr  Sr3  1  0.16096000  0.95708000  0.54272000  1.0
  Sr  Sr4  1  0.13055000  0.10780000  0.81952000  1.0
  Sr  Sr5  1  0.35487000  0.05373000  0.95008000  1.0
  Ag  Ag6  1  0.20449000  0.41297000  0.34693000  1.0
  Ag  Ag7  1  0.29361000  0.60671000  0.30066000  1.0
  Ag  Ag8  1  0.38949000  0.40719000  0.23907000  1.0
  Ag  Ag9  1  0.23522000  0.58565000  0.15907000  1.0
  Ag  Ag10  1  0.16162000  0.38580000  0.20204000  1.0
  Ag  Ag11  1  0.03133000  0.57511000  0.27309000  1.0
  Ag  Ag12  1  0.79551000  0.58703000  0.65307000  1.0
  Ag  Ag13  1  0.70639000  0.39329000  0.69934000  1.0
  Ag  Ag14  1  0.61051000  0.59281000  0.76093000  1.0
  Ag  Ag15  1  0.76478000  0.41435000  0.84093000  1.0
  Ag  Ag16  1  0.83838000  0.61420000  0.79796000  1.0
  Ag  Ag17  1  0.96867000  0.42489000  0.72691000  1.0
  H  H18  1  0.05230000  0.68660000  0.55650000  1.0
  H  H19  1  0.12380000  0.49660000  0.57430000  1.0
  H  H20  1  0.17980000  0.39230000  0.49380000  1.0
  H  H21  1  0.66250000  0.42360000  0.47870000  1.0
  H  H22  1  0.60420000  0.61150000  0.44950000  1.0
  H  H23  1  0.45940000  0.67860000  0.38410000  1.0
  H  H24  1  0.73390000  0.62420000  0.15490000  1.0
  H  H25  1  0.77360000  0.43310000  0.16430000  1.0
  H  H26  1  0.63380000  0.35700000  0.19170000  1.0
  H  H27  1  0.47310000  0.32890000  0.95530000  1.0
  H  H28  1  0.39180000  0.51910000  0.94370000  1.0
  H  H29  1  0.30290000  0.60780000  0.02430000  1.0
  H  H30  1  0.82480000  0.56660000  0.00710000  1.0
  H  H31  1  0.90270000  0.37780000  0.02570000  1.0
  H  H32  1  0.02970000  0.31320000  0.10210000  1.0
  H  H33  1  0.73950000  0.28610000  0.33420000  1.0
  H  H34  1  0.66340000  0.47650000  0.31940000  1.0
  H  H35  1  0.77820000  0.58470000  0.29710000  1.0
  H  H36  1  0.83300000  0.05400000  0.06680000  1.0
  H  H37  1  0.88400000  0.96700000  0.03700000  1.0
  H  H38  1  0.62300000  0.94700000  0.18010000  1.0
  H  H39  1  0.62900000  0.03900000  0.17420000  1.0
  H  H40  1  0.94770000  0.31340000  0.44350000  1.0
  H  H41  1  0.87620000  0.50340000  0.42570000  1.0
  H  H42  1  0.82020000  0.60770000  0.50620000  1.0
  H  H43  1  0.33750000  0.57640000  0.52130000  1.0
  H  H44  1  0.39580000  0.38850000  0.55050000  1.0
  H  H45  1  0.54060000  0.32140000  0.61590000  1.0
  H  H46  1  0.26610000  0.37580000  0.84510000  1.0
  H  H47  1  0.22640000  0.56690000  0.83570000  1.0
  H  H48  1  0.36620000  0.64300000  0.80830000  1.0
  H  H49  1  0.52690000  0.67110000  0.04470000  1.0
  H  H50  1  0.60820000  0.48090000  0.05630000  1.0
  H  H51  1  0.69710000  0.39220000  0.97570000  1.0
  H  H52  1  0.17520000  0.43340000  0.99290000  1.0
  H  H53  1  0.09730000  0.62220000  0.97430000  1.0
  H  H54  1  0.97030000  0.68680000  0.89790000  1.0
  H  H55  1  0.26050000  0.71390000  0.66580000  1.0
  H  H56  1  0.33660000  0.52350000  0.68060000  1.0
  H  H57  1  0.22180000  0.41530000  0.70290000  1.0
  H  H58  1  0.16700000  0.94600000  0.93320000  1.0
  H  H59  1  0.11600000  0.03300000  0.96300000  1.0
  H  H60  1  0.37700000  0.05300000  0.81990000  1.0
  H  H61  1  0.37100000  0.96100000  0.82580000  1.0
  C  C62  1  0.10430000  0.62310000  0.41830000  1.0
  C  C63  1  0.06510000  0.69140000  0.46544000  1.0
  C  C64  1  0.07490000  0.64290000  0.52426000  1.0
  C  C65  1  0.11790000  0.53020000  0.53507000  1.0
  C  C66  1  0.15190000  0.46860000  0.48661000  1.0
  C  C67  1  0.00830000  0.81320000  0.45473000  1.0
  C  C68  1  0.46890000  0.42780000  0.38534000  1.0
  C  C69  1  0.55270000  0.38250000  0.42864000  1.0
  C  C70  1  0.60440000  0.45220000  0.45161000  1.0
  C  C71  1  0.57010000  0.56380000  0.43436000  1.0
  C  C72  1  0.48470000  0.60280000  0.39445000  1.0
  C  C73  1  0.59000000  0.26220000  0.45193000  1.0
  C  C74  1  0.48920000  0.60560000  0.19069000  1.0
  C  C75  1  0.57080000  0.65700000  0.17322000  1.0
  C  C76  1  0.67800000  0.59150000  0.16479000  1.0
  C  C77  1  0.70230000  0.47800000  0.17100000  1.0
  C  C78  1  0.61800000  0.43350000  0.18739000  1.0
  C  C79  1  0.54920000  0.78090000  0.16504000  1.0
  C  C80  1  0.36710000  0.36770000  0.08959000  1.0
  C  C81  1  0.42730000  0.30870000  0.04289000  1.0
  C  C82  1  0.43550000  0.36620000  0.98749000  1.0
  C  C83  1  0.38740000  0.47930000  0.98052000  1.0
  C  C84  1  0.33310000  0.53140000  0.02883000  1.0
  C  C85  1  0.49060000  0.18760000  0.05101000  1.0
  C  C86  1  0.98060000  0.56690000  0.12011000  1.0
  C  C87  1  0.90030000  0.61110000  0.07505000  1.0
  C  C88  1  0.87450000  0.53890000  0.03869000  1.0
  C  C89  1  0.92170000  0.42680000  0.04895000  1.0
  C  C90  1  0.99790000  0.38900000  0.09467000  1.0
  C  C91  1  0.83460000  0.73140000  0.06546000  1.0
  C  C92  1  0.96410000  0.35650000  0.30469000  1.0
  C  C93  1  0.89760000  0.28640000  0.31837000  1.0
  C  C94  1  0.78460000  0.33150000  0.32447000  1.0
  C  C95  1  0.73940000  0.44440000  0.31606000  1.0
  C  C96  1  0.80890000  0.50850000  0.30267000  1.0
  C  C97  1  0.94720000  0.16330000  0.32710000  1.0
  C  C98  1  0.89570000  0.37690000  0.58170000  1.0
  C  C99  1  0.93490000  0.30860000  0.53456000  1.0
  C  C100  1  0.92510000  0.35710000  0.47574000  1.0
  C  C101  1  0.88210000  0.46980000  0.46493000  1.0
  C  C102  1  0.84810000  0.53140000  0.51339000  1.0
  C  C103  1  0.99170000  0.18680000  0.54527000  1.0
  C  C104  1  0.53110000  0.57220000  0.61466000  1.0
  C  C105  1  0.44730000  0.61750000  0.57136000  1.0
  C  C106  1  0.39560000  0.54780000  0.54839000  1.0
  C  C107  1  0.42990000  0.43620000  0.56564000  1.0
  C  C108  1  0.51530000  0.39720000  0.60555000  1.0
  C  C109  1  0.41000000  0.73780000  0.54807000  1.0
  C  C110  1  0.51080000  0.39440000  0.80931000  1.0
  C  C111  1  0.42920000  0.34300000  0.82678000  1.0
  C  C112  1  0.32200000  0.40850000  0.83521000  1.0
  C  C113  1  0.29770000  0.52200000  0.82900000  1.0
  C  C114  1  0.38200000  0.56650000  0.81261000  1.0
  C  C115  1  0.45080000  0.21910000  0.83496000  1.0
  C  C116  1  0.63290000  0.63230000  0.91041000  1.0
  C  C117  1  0.57270000  0.69130000  0.95711000  1.0
  C  C118  1  0.56450000  0.63380000  0.01251000  1.0
  C  C119  1  0.61260000  0.52070000  0.01948000  1.0
  C  C120  1  0.66690000  0.46860000  0.97117000  1.0
  C  C121  1  0.50940000  0.81240000  0.94899000  1.0
  C  C122  1  0.01940000  0.43310000  0.87989000  1.0
  C  C123  1  0.09970000  0.38890000  0.92495000  1.0
  C  C124  1  0.12550000  0.46110000  0.96131000  1.0
  C  C125  1  0.07830000  0.57320000  0.95105000  1.0
  C  C126  1  0.00210000  0.61100000  0.90533000  1.0
  C  C127  1  0.16540000  0.26860000  0.93454000  1.0
  C  C128  1  0.03590000  0.64350000  0.69531000  1.0
  C  C129  1  0.10240000  0.71360000  0.68163000  1.0
  C  C130  1  0.21540000  0.66850000  0.67553000  1.0
  C  C131  1  0.26060000  0.55560000  0.68394000  1.0
  C  C132  1  0.19110000  0.49150000  0.69733000  1.0
  C  C133  1  0.05280000  0.83670000  0.67290000  1.0
  S  S134  1  0.10443000  0.68003000  0.34266000  1.0
  S  S135  1  0.41134000  0.34225000  0.34704000  1.0
  S  S136  1  0.35207000  0.68636000  0.20290000  1.0
  S  S137  1  0.34921000  0.29614000  0.15920000  1.0
  S  S138  1  0.03066000  0.65075000  0.16437000  1.0
  S  S139  1  0.10872000  0.29924000  0.29870000  1.0
  S  S140  1  0.89557000  0.31997000  0.65734000  1.0
  S  S141  1  0.58866000  0.65775000  0.65296000  1.0
  S  S142  1  0.64793000  0.31364000  0.79710000  1.0
  S  S143  1  0.65079000  0.70386000  0.84080000  1.0
  S  S144  1  0.96934000  0.34925000  0.83563000  1.0
  S  S145  1  0.89128000  0.70076000  0.70130000  1.0
  N  N146  1  0.14670000  0.51327000  0.42924000  1.0
  N  N147  1  0.43550000  0.53720000  0.36941000  1.0
  N  N148  1  0.51410000  0.49440000  0.19752000  1.0
  N  N149  1  0.32127000  0.47780000  0.08244000  1.0
  N  N150  1  0.02850000  0.45696000  0.12901000  1.0
  N  N151  1  0.91920000  0.46680000  0.29715000  1.0
  N  N152  1  0.85330000  0.48673000  0.57076000  1.0
  N  N153  1  0.56450000  0.46280000  0.63059000  1.0
  N  N154  1  0.48590000  0.50560000  0.80248000  1.0
  N  N155  1  0.67873000  0.52220000  0.91756000  1.0
  N  N156  1  0.97150000  0.54304000  0.87099000  1.0
  N  N157  1  0.08080000  0.53320000  0.70285000  1.0
  O  O158  1  0.92064000  0.84395000  0.42449000  1.0
  O  O159  1  0.04679000  0.88001000  0.47768000  1.0
  O  O160  1  0.51818000  0.21396000  0.46591000  1.0
  O  O161  1  0.69182000  0.22035000  0.45828000  1.0
  O  O162  1  0.53250000  0.82715000  0.11255000  1.0
  O  O163  1  0.55850000  0.82779000  0.21112000  1.0
  O  O164  1  0.58211000  0.16297000  0.07648000  1.0
  O  O165  1  0.45396000  0.11731000  0.02975000  1.0
  O  O166  1  0.81000000  0.77303000  0.01285000  1.0
  O  O167  1  0.80050000  0.78290000  0.11180000  1.0
  O  O168  1  0.95732000  0.11942000  0.38017000  1.0
  O  O169  1  0.97117000  0.11196000  0.28023000  1.0
  O  O170  1  0.83570000  0.99430000  0.06716000  1.0
  O  O171  1  0.65765000  0.97630000  0.16507000  1.0
  O  O172  1  0.07936000  0.15605000  0.57551000  1.0
  O  O173  1  0.95321000  0.11999000  0.52232000  1.0
  O  O174  1  0.48182000  0.78604000  0.53409000  1.0
  O  O175  1  0.30818000  0.77965000  0.54172000  1.0
  O  O176  1  0.46750000  0.17285000  0.88745000  1.0
  O  O177  1  0.44150000  0.17221000  0.78888000  1.0
  O  O178  1  0.41789000  0.83703000  0.92352000  1.0
  O  O179  1  0.54604000  0.88269000  0.97025000  1.0
  O  O180  1  0.19000000  0.22697000  0.98715000  1.0
  O  O181  1  0.19950000  0.21710000  0.88820000  1.0
  O  O182  1  0.04268000  0.88058000  0.61983000  1.0
  O  O183  1  0.02883000  0.88804000  0.71977000  1.0
  O  O184  1  0.16430000  0.00570000  0.93284000  1.0
  O  O185  1  0.34235000  0.02370000  0.83493000  1.0
