# generated using pymatgen
data_ZnH2CN5F
_symmetry_space_group_name_H-M   'P 1'
_cell_length_a   6.58730000
_cell_length_b   12.93960000
_cell_length_c   13.01410000
_cell_angle_alpha   90.00000000
_cell_angle_beta   90.02300000
_cell_angle_gamma   90.00000000
_symmetry_Int_Tables_number   1
_chemical_formula_structural   ZnH2CN5F
_chemical_formula_sum   'Zn8 H16 C8 N40 F8'
_cell_volume   1109.28310475
_cell_formula_units_Z   8
loop_
 _symmetry_equiv_pos_site_id
 _symmetry_equiv_pos_as_xyz
  1  'x, y, z'
loop_
 _atom_site_type_symbol
 _atom_site_label
 _atom_site_symmetry_multiplicity
 _atom_site_fract_x
 _atom_site_fract_y
 _atom_site_fract_z
 _atom_site_occupancy
  Zn  Zn0  1  0.20294000  0.45775000  0.95198000  1.0
  Zn  Zn1  1  0.79706000  0.95775000  0.54802000  1.0
  Zn  Zn2  1  0.79706000  0.54225000  0.04802000  1.0
  Zn  Zn3  1  0.20294000  0.04225000  0.45198000  1.0
  Zn  Zn4  1  0.00000000  0.00000000  0.00000000  1.0
  Zn  Zn5  1  0.00000000  0.50000000  0.50000000  1.0
  Zn  Zn6  1  0.50000000  0.00000000  0.00000000  1.0
  Zn  Zn7  1  0.50000000  0.50000000  0.50000000  1.0
  H  H8  1  0.70170000  0.23310000  0.97320000  1.0
  H  H9  1  0.62970000  0.34220000  0.97000000  1.0
  H  H10  1  0.70090000  0.51210000  0.73450000  1.0
  H  H11  1  0.62800000  0.50250000  0.84240000  1.0
  H  H12  1  0.29830000  0.73310000  0.52680000  1.0
  H  H13  1  0.37030000  0.84220000  0.53000000  1.0
  H  H14  1  0.29910000  0.01210000  0.76550000  1.0
  H  H15  1  0.37200000  0.00250000  0.65760000  1.0
  H  H16  1  0.29830000  0.76690000  0.02680000  1.0
  H  H17  1  0.37030000  0.65780000  0.03000000  1.0
  H  H18  1  0.29910000  0.48790000  0.26550000  1.0
  H  H19  1  0.37200000  0.49750000  0.15760000  1.0
  H  H20  1  0.70170000  0.26690000  0.47320000  1.0
  H  H21  1  0.62970000  0.15780000  0.47000000  1.0
  H  H22  1  0.70090000  0.98790000  0.23450000  1.0
  H  H23  1  0.62800000  0.99750000  0.34240000  1.0
  C  C24  1  0.40980000  0.24410000  0.97980000  1.0
  C  C25  1  0.40660000  0.50970000  0.74400000  1.0
  C  C26  1  0.59020000  0.74410000  0.52020000  1.0
  C  C27  1  0.59340000  0.00970000  0.75600000  1.0
  C  C28  1  0.59020000  0.75590000  0.02020000  1.0
  C  C29  1  0.59340000  0.49030000  0.25600000  1.0
  C  C30  1  0.40980000  0.25590000  0.47980000  1.0
  C  C31  1  0.40660000  0.99030000  0.24400000  1.0
  N  N32  1  0.24590000  0.30510000  0.97480000  1.0
  N  N33  1  0.08250000  0.24080000  0.97880000  1.0
  N  N34  1  0.15040000  0.14760000  0.98500000  1.0
  N  N35  1  0.35340000  0.14590000  0.98560000  1.0
  N  N36  1  0.60390000  0.27720000  0.97360000  1.0
  N  N37  1  0.24480000  0.50180000  0.80520000  1.0
  N  N38  1  0.08110000  0.50580000  0.74040000  1.0
  N  N39  1  0.15210000  0.51430000  0.64610000  1.0
  N  N40  1  0.35360000  0.51770000  0.64790000  1.0
  N  N41  1  0.60270000  0.50790000  0.77780000  1.0
  N  N42  1  0.75410000  0.80510000  0.52520000  1.0
  N  N43  1  0.91750000  0.74080000  0.52120000  1.0
  N  N44  1  0.84960000  0.64760000  0.51500000  1.0
  N  N45  1  0.64660000  0.64590000  0.51440000  1.0
  N  N46  1  0.39610000  0.77720000  0.52640000  1.0
  N  N47  1  0.75520000  0.00180000  0.69480000  1.0
  N  N48  1  0.91890000  0.00580000  0.75960000  1.0
  N  N49  1  0.84790000  0.01430000  0.85390000  1.0
  N  N50  1  0.64640000  0.01770000  0.85210000  1.0
  N  N51  1  0.39730000  0.00790000  0.72220000  1.0
  N  N52  1  0.75410000  0.69490000  0.02520000  1.0
  N  N53  1  0.91750000  0.75920000  0.02120000  1.0
  N  N54  1  0.84960000  0.85240000  0.01500000  1.0
  N  N55  1  0.64660000  0.85410000  0.01440000  1.0
  N  N56  1  0.39610000  0.72280000  0.02640000  1.0
  N  N57  1  0.75520000  0.49820000  0.19480000  1.0
  N  N58  1  0.91890000  0.49420000  0.25960000  1.0
  N  N59  1  0.84790000  0.48570000  0.35390000  1.0
  N  N60  1  0.64640000  0.48230000  0.35210000  1.0
  N  N61  1  0.39730000  0.49210000  0.22220000  1.0
  N  N62  1  0.24590000  0.19490000  0.47480000  1.0
  N  N63  1  0.08250000  0.25920000  0.47880000  1.0
  N  N64  1  0.15040000  0.35240000  0.48500000  1.0
  N  N65  1  0.35340000  0.35410000  0.48560000  1.0
  N  N66  1  0.60390000  0.22280000  0.47360000  1.0
  N  N67  1  0.24480000  0.99820000  0.30520000  1.0
  N  N68  1  0.08110000  0.99420000  0.24040000  1.0
  N  N69  1  0.15210000  0.98570000  0.14610000  1.0
  N  N70  1  0.35360000  0.98230000  0.14790000  1.0
  N  N71  1  0.60270000  0.99210000  0.27780000  1.0
  F  F72  1  0.11100000  0.55170000  0.06030000  1.0
  F  F73  1  0.24680000  0.93460000  0.93560000  1.0
  F  F74  1  0.88900000  0.05170000  0.43970000  1.0
  F  F75  1  0.75320000  0.43460000  0.56440000  1.0
  F  F76  1  0.88900000  0.44830000  0.93970000  1.0
  F  F77  1  0.75320000  0.06540000  0.06440000  1.0
  F  F78  1  0.11100000  0.94830000  0.56030000  1.0
  F  F79  1  0.24680000  0.56540000  0.43560000  1.0
