# generated using pymatgen
data_ZnH2(CO2)2
_symmetry_space_group_name_H-M   'P 1'
_cell_length_a   9.75050000
_cell_length_b   11.21770000
_cell_length_c   14.37360000
_cell_angle_alpha   91.28910000
_cell_angle_beta   90.00000000
_cell_angle_gamma   90.00000000
_symmetry_Int_Tables_number   1
_chemical_formula_structural   ZnH2(CO2)2
_chemical_formula_sum   'Zn12 H24 C24 O48'
_cell_volume   1571.76036159
_cell_formula_units_Z   12
loop_
 _symmetry_equiv_pos_site_id
 _symmetry_equiv_pos_as_xyz
  1  'x, y, z'
loop_
 _atom_site_type_symbol
 _atom_site_label
 _atom_site_symmetry_multiplicity
 _atom_site_fract_x
 _atom_site_fract_y
 _atom_site_fract_z
 _atom_site_occupancy
  Zn  Zn0  1  0.91895000  0.75672000  0.13186000  1.0
  Zn  Zn1  1  0.10322000  0.74020000  0.31480000  1.0
  Zn  Zn2  1  0.41895000  0.74328000  0.36814000  1.0
  Zn  Zn3  1  0.60322000  0.75980000  0.18520000  1.0
  Zn  Zn4  1  0.08105000  0.24328000  0.86814000  1.0
  Zn  Zn5  1  0.89678000  0.25980000  0.68520000  1.0
  Zn  Zn6  1  0.58105000  0.25672000  0.63186000  1.0
  Zn  Zn7  1  0.39678000  0.24020000  0.81480000  1.0
  Zn  Zn8  1  0.00000000  0.50000000  0.00000000  1.0
  Zn  Zn9  1  0.50000000  0.00000000  0.50000000  1.0
  Zn  Zn10  1  0.00000000  0.00000000  0.00000000  1.0
  Zn  Zn11  1  0.50000000  0.50000000  0.50000000  1.0
  H  H12  1  0.74790000  0.86160000  0.36860000  1.0
  H  H13  1  0.02250000  0.47390000  0.26870000  1.0
  H  H14  1  0.61310000  0.56140000  0.03540000  1.0
  H  H15  1  0.17440000  0.99060000  0.24100000  1.0
  H  H16  1  0.17210000  0.69670000  0.93440000  1.0
  H  H17  1  0.70020000  0.98580000  0.99990000  1.0
  H  H18  1  0.24790000  0.63840000  0.13140000  1.0
  H  H19  1  0.52250000  0.02610000  0.23130000  1.0
  H  H20  1  0.11310000  0.93860000  0.46460000  1.0
  H  H21  1  0.67440000  0.50940000  0.25900000  1.0
  H  H22  1  0.67210000  0.80330000  0.56560000  1.0
  H  H23  1  0.20020000  0.51420000  0.50010000  1.0
  H  H24  1  0.25210000  0.13840000  0.63140000  1.0
  H  H25  1  0.97750000  0.52610000  0.73130000  1.0
  H  H26  1  0.38690000  0.43860000  0.96460000  1.0
  H  H27  1  0.82560000  0.00940000  0.75900000  1.0
  H  H28  1  0.82790000  0.30330000  0.06560000  1.0
  H  H29  1  0.29980000  0.01420000  0.00010000  1.0
  H  H30  1  0.75210000  0.36160000  0.86860000  1.0
  H  H31  1  0.47750000  0.97390000  0.76870000  1.0
  H  H32  1  0.88690000  0.06140000  0.53540000  1.0
  H  H33  1  0.32560000  0.49060000  0.74100000  1.0
  H  H34  1  0.32790000  0.19670000  0.43440000  1.0
  H  H35  1  0.79980000  0.48580000  0.49990000  1.0
  C  C36  1  0.82100000  0.83130000  0.33130000  1.0
  C  C37  1  0.00550000  0.51610000  0.21330000  1.0
  C  C38  1  0.70790000  0.57680000  0.04470000  1.0
  C  C39  1  0.11960000  0.96000000  0.19130000  1.0
  C  C40  1  0.11260000  0.74260000  0.97330000  1.0
  C  C41  1  0.71690000  0.92680000  0.04490000  1.0
  C  C42  1  0.32100000  0.66870000  0.16870000  1.0
  C  C43  1  0.50550000  0.98390000  0.28670000  1.0
  C  C44  1  0.20790000  0.92320000  0.45530000  1.0
  C  C45  1  0.61960000  0.54000000  0.30870000  1.0
  C  C46  1  0.61260000  0.75740000  0.52670000  1.0
  C  C47  1  0.21690000  0.57320000  0.45510000  1.0
  C  C48  1  0.17900000  0.16870000  0.66870000  1.0
  C  C49  1  0.99450000  0.48390000  0.78670000  1.0
  C  C50  1  0.29210000  0.42320000  0.95530000  1.0
  C  C51  1  0.88040000  0.04000000  0.80870000  1.0
  C  C52  1  0.88740000  0.25740000  0.02670000  1.0
  C  C53  1  0.28310000  0.07320000  0.95510000  1.0
  C  C54  1  0.67900000  0.33130000  0.83130000  1.0
  C  C55  1  0.49450000  0.01610000  0.71330000  1.0
  C  C56  1  0.79210000  0.07680000  0.54470000  1.0
  C  C57  1  0.38040000  0.46000000  0.69130000  1.0
  C  C58  1  0.38740000  0.24260000  0.47330000  1.0
  C  C59  1  0.78310000  0.42680000  0.54490000  1.0
  O  O60  1  0.79500000  0.81231000  0.24491000  1.0
  O  O61  1  0.93120000  0.81430000  0.37100000  1.0
  O  O62  1  0.00050000  0.62856000  0.22096000  1.0
  O  O63  1  0.99060000  0.45579000  0.14169000  1.0
  O  O64  1  0.74060000  0.65280000  0.10900000  1.0
  O  O65  1  0.78990000  0.52199000  0.99389000  1.0
  O  O66  1  0.07950000  0.85206000  0.19686000  1.0
  O  O67  1  0.09390000  0.02839000  0.12759000  1.0
  O  O68  1  0.02870000  0.68495000  0.02455000  1.0
  O  O69  1  0.12320000  0.85146000  0.96986000  1.0
  O  O70  1  0.84130000  0.89602000  0.05672000  1.0
  O  O71  1  0.61500000  0.88758000  0.08618000  1.0
  O  O72  1  0.29500000  0.68769000  0.25509000  1.0
  O  O73  1  0.43120000  0.68570000  0.12900000  1.0
  O  O74  1  0.50050000  0.87144000  0.27904000  1.0
  O  O75  1  0.49060000  0.04421000  0.35831000  1.0
  O  O76  1  0.24060000  0.84720000  0.39100000  1.0
  O  O77  1  0.28990000  0.97801000  0.50611000  1.0
  O  O78  1  0.57950000  0.64794000  0.30314000  1.0
  O  O79  1  0.59390000  0.47161000  0.37241000  1.0
  O  O80  1  0.52870000  0.81505000  0.47545000  1.0
  O  O81  1  0.62320000  0.64854000  0.53014000  1.0
  O  O82  1  0.34130000  0.60398000  0.44328000  1.0
  O  O83  1  0.11500000  0.61242000  0.41382000  1.0
  O  O84  1  0.20500000  0.18769000  0.75509000  1.0
  O  O85  1  0.06880000  0.18570000  0.62900000  1.0
  O  O86  1  0.99950000  0.37144000  0.77904000  1.0
  O  O87  1  0.00940000  0.54421000  0.85831000  1.0
  O  O88  1  0.25940000  0.34720000  0.89100000  1.0
  O  O89  1  0.21010000  0.47801000  0.00611000  1.0
  O  O90  1  0.92050000  0.14794000  0.80314000  1.0
  O  O91  1  0.90610000  0.97161000  0.87241000  1.0
  O  O92  1  0.97130000  0.31505000  0.97545000  1.0
  O  O93  1  0.87680000  0.14854000  0.03014000  1.0
  O  O94  1  0.15870000  0.10398000  0.94328000  1.0
  O  O95  1  0.38500000  0.11242000  0.91382000  1.0
  O  O96  1  0.70500000  0.31231000  0.74491000  1.0
  O  O97  1  0.56880000  0.31430000  0.87100000  1.0
  O  O98  1  0.49950000  0.12856000  0.72096000  1.0
  O  O99  1  0.50940000  0.95579000  0.64169000  1.0
  O  O100  1  0.75940000  0.15280000  0.60900000  1.0
  O  O101  1  0.71010000  0.02199000  0.49389000  1.0
  O  O102  1  0.42050000  0.35206000  0.69686000  1.0
  O  O103  1  0.40610000  0.52839000  0.62759000  1.0
  O  O104  1  0.47130000  0.18495000  0.52455000  1.0
  O  O105  1  0.37680000  0.35146000  0.46986000  1.0
  O  O106  1  0.65870000  0.39602000  0.55672000  1.0
  O  O107  1  0.88500000  0.38758000  0.58618000  1.0
