# generated using pymatgen
data_Zn4H33C50NO15
_symmetry_space_group_name_H-M   'P 1'
_cell_length_a   41.45900000
_cell_length_b   41.45900000
_cell_length_c   17.56100000
_cell_angle_alpha   90.00000000
_cell_angle_beta   90.00000000
_cell_angle_gamma   120.00000000
_symmetry_Int_Tables_number   1
_chemical_formula_structural   Zn4H33C50NO15
_chemical_formula_sum   'Zn24 H198 C300 N6 O90'
_cell_volume   26140.71846663
_cell_formula_units_Z   6
loop_
 _symmetry_equiv_pos_site_id
 _symmetry_equiv_pos_as_xyz
  1  'x, y, z'
loop_
 _atom_site_type_symbol
 _atom_site_label
 _atom_site_symmetry_multiplicity
 _atom_site_fract_x
 _atom_site_fract_y
 _atom_site_fract_z
 _atom_site_occupancy
  Zn  Zn0  1  0.02882000  0.62833000  0.59764000  1.0
  Zn  Zn1  1  0.06887000  0.59144000  0.50592000  1.0
  Zn  Zn2  1  0.02897000  0.62793000  0.41815000  1.0
  Zn  Zn3  1  0.10421000  0.67888000  0.50904000  1.0
  Zn  Zn4  1  0.37167000  0.40049000  0.59764000  1.0
  Zn  Zn5  1  0.40856000  0.47743000  0.50592000  1.0
  Zn  Zn6  1  0.37207000  0.40104000  0.41815000  1.0
  Zn  Zn7  1  0.32112000  0.42533000  0.50904000  1.0
  Zn  Zn8  1  0.59951000  0.97118000  0.59764000  1.0
  Zn  Zn9  1  0.52257000  0.93113000  0.50592000  1.0
  Zn  Zn10  1  0.59896000  0.97103000  0.41815000  1.0
  Zn  Zn11  1  0.57467000  0.89579000  0.50904000  1.0
  Zn  Zn12  1  0.97118000  0.37167000  0.09764000  1.0
  Zn  Zn13  1  0.93113000  0.40856000  0.00592000  1.0
  Zn  Zn14  1  0.97103000  0.37207000  0.91815000  1.0
  Zn  Zn15  1  0.89579000  0.32112000  0.00904000  1.0
  Zn  Zn16  1  0.62833000  0.59951000  0.09764000  1.0
  Zn  Zn17  1  0.59144000  0.52257000  0.00592000  1.0
  Zn  Zn18  1  0.62793000  0.59896000  0.91815000  1.0
  Zn  Zn19  1  0.67888000  0.57467000  0.00904000  1.0
  Zn  Zn20  1  0.40049000  0.02882000  0.09764000  1.0
  Zn  Zn21  1  0.47743000  0.06887000  0.00592000  1.0
  Zn  Zn22  1  0.40104000  0.02897000  0.91815000  1.0
  Zn  Zn23  1  0.42533000  0.10421000  0.00904000  1.0
  H  H24  1  0.98280000  0.54330000  0.75750000  1.0
  H  H25  1  0.96090000  0.49580000  0.84700000  1.0
  H  H26  1  0.17350000  0.59680000  0.45950000  1.0
  H  H27  1  0.23260000  0.60380000  0.46500000  1.0
  H  H28  1  0.27190000  0.70470000  0.56050000  1.0
  H  H29  1  0.21280000  0.69770000  0.55510000  1.0
  H  H30  1  0.28230000  0.60750000  0.50670000  1.0
  H  H31  1  0.15670000  0.74950000  0.69430000  1.0
  H  H32  1  0.18200000  0.78500000  0.80320000  1.0
  H  H33  1  0.08230000  0.72970000  0.90650000  1.0
  H  H34  1  0.05700000  0.69420000  0.79760000  1.0
  H  H35  1  0.19050000  0.82720000  0.89640000  1.0
  H  H36  1  0.20640000  0.82070000  0.12030000  1.0
  H  H37  1  0.11850000  0.73660000  0.01500000  1.0
  H  H38  1  0.06270000  0.69800000  0.22890000  1.0
  H  H39  1  0.08860000  0.72820000  0.11490000  1.0
  H  H40  1  0.19040000  0.77760000  0.21010000  1.0
  H  H41  1  0.16450000  0.74740000  0.32420000  1.0
  H  H42  1  0.31320000  0.91880000  0.11150000  1.0
  H  H43  1  0.25830000  0.86180000  0.11320000  1.0
  H  H44  1  0.23120000  0.88390000  0.90770000  1.0
  H  H45  1  0.28610000  0.94090000  0.90600000  1.0
  H  H46  1  0.06590000  0.45450000  0.67550000  1.0
  H  H47  1  0.04790000  0.39570000  0.64350000  1.0
  H  H48  1  0.03330000  0.38090000  0.72620000  1.0
  H  H49  1  0.04920000  0.42740000  0.82980000  1.0
  H  H50  1  0.09720000  0.48840000  0.86610000  1.0
  H  H51  1  0.06280000  0.48890000  0.83040000  1.0
  H  H52  1  0.09890000  0.50150000  0.78170000  1.0
  H  H53  1  0.11280000  0.44260000  0.83900000  1.0
  H  H54  1  0.11720000  0.45040000  0.75110000  1.0
  H  H55  1  0.09050000  0.41000000  0.78130000  1.0
  H  H56  1  0.50089000  0.45761000  0.14534000  1.0
  H  H57  1  0.45670000  0.43950000  0.75750000  1.0
  H  H58  1  0.50420000  0.46510000  0.84700000  1.0
  H  H59  1  0.40320000  0.57670000  0.45950000  1.0
  H  H60  1  0.39620000  0.62880000  0.46500000  1.0
  H  H61  1  0.29530000  0.56720000  0.56050000  1.0
  H  H62  1  0.30230000  0.51510000  0.55510000  1.0
  H  H63  1  0.39250000  0.67480000  0.50670000  1.0
  H  H64  1  0.25050000  0.40720000  0.69430000  1.0
  H  H65  1  0.21500000  0.39700000  0.80320000  1.0
  H  H66  1  0.27030000  0.35260000  0.90650000  1.0
  H  H67  1  0.30580000  0.36280000  0.79760000  1.0
  H  H68  1  0.17280000  0.36330000  0.89640000  1.0
  H  H69  1  0.17930000  0.38570000  0.12030000  1.0
  H  H70  1  0.26340000  0.38190000  0.01500000  1.0
  H  H71  1  0.30200000  0.36470000  0.22890000  1.0
  H  H72  1  0.27180000  0.36040000  0.11490000  1.0
  H  H73  1  0.22240000  0.41280000  0.21010000  1.0
  H  H74  1  0.25260000  0.41710000  0.32420000  1.0
  H  H75  1  0.08120000  0.39440000  0.11150000  1.0
  H  H76  1  0.13820000  0.39650000  0.11320000  1.0
  H  H77  1  0.11610000  0.34730000  0.90770000  1.0
  H  H78  1  0.05910000  0.34520000  0.90600000  1.0
  H  H79  1  0.54550000  0.61140000  0.67550000  1.0
  H  H80  1  0.60430000  0.65220000  0.64350000  1.0
  H  H81  1  0.61910000  0.65240000  0.72620000  1.0
  H  H82  1  0.57260000  0.62180000  0.82980000  1.0
  H  H83  1  0.51160000  0.60880000  0.86610000  1.0
  H  H84  1  0.51110000  0.57390000  0.83040000  1.0
  H  H85  1  0.49850000  0.59740000  0.78170000  1.0
  H  H86  1  0.55740000  0.67020000  0.83900000  1.0
  H  H87  1  0.54960000  0.66680000  0.75110000  1.0
  H  H88  1  0.59000000  0.68050000  0.78130000  1.0
  H  H89  1  0.54239000  0.04329000  0.14534000  1.0
  H  H90  1  0.56050000  0.01720000  0.75750000  1.0
  H  H91  1  0.53490000  0.03910000  0.84700000  1.0
  H  H92  1  0.42330000  0.82650000  0.45950000  1.0
  H  H93  1  0.37120000  0.76740000  0.46500000  1.0
  H  H94  1  0.43280000  0.72810000  0.56050000  1.0
  H  H95  1  0.48490000  0.78720000  0.55510000  1.0
  H  H96  1  0.32520000  0.71770000  0.50670000  1.0
  H  H97  1  0.59280000  0.84330000  0.69430000  1.0
  H  H98  1  0.60300000  0.81800000  0.80320000  1.0
  H  H99  1  0.64740000  0.91770000  0.90650000  1.0
  H  H100  1  0.63720000  0.94300000  0.79760000  1.0
  H  H101  1  0.63670000  0.80950000  0.89640000  1.0
  H  H102  1  0.61430000  0.79360000  0.12030000  1.0
  H  H103  1  0.61810000  0.88150000  0.01500000  1.0
  H  H104  1  0.63530000  0.93730000  0.22890000  1.0
  H  H105  1  0.63960000  0.91140000  0.11490000  1.0
  H  H106  1  0.58720000  0.80960000  0.21010000  1.0
  H  H107  1  0.58290000  0.83550000  0.32420000  1.0
  H  H108  1  0.60560000  0.68680000  0.11150000  1.0
  H  H109  1  0.60350000  0.74170000  0.11320000  1.0
  H  H110  1  0.65270000  0.76880000  0.90770000  1.0
  H  H111  1  0.65480000  0.71390000  0.90600000  1.0
  H  H112  1  0.38860000  0.93410000  0.67550000  1.0
  H  H113  1  0.34780000  0.95210000  0.64350000  1.0
  H  H114  1  0.34760000  0.96670000  0.72620000  1.0
  H  H115  1  0.37820000  0.95080000  0.82980000  1.0
  H  H116  1  0.39120000  0.90280000  0.86610000  1.0
  H  H117  1  0.42610000  0.93720000  0.83040000  1.0
  H  H118  1  0.40260000  0.90110000  0.78170000  1.0
  H  H119  1  0.32980000  0.88720000  0.83900000  1.0
  H  H120  1  0.33320000  0.88280000  0.75110000  1.0
  H  H121  1  0.31950000  0.90950000  0.78130000  1.0
  H  H122  1  0.95671000  0.49911000  0.14534000  1.0
  H  H123  1  0.01720000  0.45670000  0.25750000  1.0
  H  H124  1  0.03910000  0.50420000  0.34700000  1.0
  H  H125  1  0.82650000  0.40320000  0.95950000  1.0
  H  H126  1  0.76740000  0.39620000  0.96500000  1.0
  H  H127  1  0.72810000  0.29530000  0.06050000  1.0
  H  H128  1  0.78720000  0.30230000  0.05510000  1.0
  H  H129  1  0.71770000  0.39250000  0.00670000  1.0
  H  H130  1  0.84330000  0.25050000  0.19430000  1.0
  H  H131  1  0.81800000  0.21500000  0.30320000  1.0
  H  H132  1  0.91770000  0.27030000  0.40650000  1.0
  H  H133  1  0.94300000  0.30580000  0.29760000  1.0
  H  H134  1  0.80950000  0.17280000  0.39640000  1.0
  H  H135  1  0.79360000  0.17930000  0.62030000  1.0
  H  H136  1  0.88150000  0.26340000  0.51500000  1.0
  H  H137  1  0.93730000  0.30200000  0.72890000  1.0
  H  H138  1  0.91140000  0.27180000  0.61490000  1.0
  H  H139  1  0.80960000  0.22240000  0.71010000  1.0
  H  H140  1  0.83550000  0.25260000  0.82420000  1.0
  H  H141  1  0.68680000  0.08120000  0.61150000  1.0
  H  H142  1  0.74170000  0.13820000  0.61320000  1.0
  H  H143  1  0.76880000  0.11610000  0.40770000  1.0
  H  H144  1  0.71390000  0.05910000  0.40600000  1.0
  H  H145  1  0.93410000  0.54550000  0.17550000  1.0
  H  H146  1  0.95210000  0.60430000  0.14350000  1.0
  H  H147  1  0.96670000  0.61910000  0.22620000  1.0
  H  H148  1  0.95080000  0.57260000  0.32980000  1.0
  H  H149  1  0.90280000  0.51160000  0.36610000  1.0
  H  H150  1  0.93720000  0.51110000  0.33040000  1.0
  H  H151  1  0.90110000  0.49850000  0.28170000  1.0
  H  H152  1  0.88720000  0.55740000  0.33900000  1.0
  H  H153  1  0.88280000  0.54960000  0.25110000  1.0
  H  H154  1  0.90950000  0.59000000  0.28130000  1.0
  H  H155  1  0.49911000  0.54239000  0.64534000  1.0
  H  H156  1  0.54330000  0.56050000  0.25750000  1.0
  H  H157  1  0.49580000  0.53490000  0.34700000  1.0
  H  H158  1  0.59680000  0.42330000  0.95950000  1.0
  H  H159  1  0.60380000  0.37120000  0.96500000  1.0
  H  H160  1  0.70470000  0.43280000  0.06050000  1.0
  H  H161  1  0.69770000  0.48490000  0.05510000  1.0
  H  H162  1  0.60750000  0.32520000  0.00670000  1.0
  H  H163  1  0.74950000  0.59280000  0.19430000  1.0
  H  H164  1  0.78500000  0.60300000  0.30320000  1.0
  H  H165  1  0.72970000  0.64740000  0.40650000  1.0
  H  H166  1  0.69420000  0.63720000  0.29760000  1.0
  H  H167  1  0.82720000  0.63670000  0.39640000  1.0
  H  H168  1  0.82070000  0.61430000  0.62030000  1.0
  H  H169  1  0.73660000  0.61810000  0.51500000  1.0
  H  H170  1  0.69800000  0.63530000  0.72890000  1.0
  H  H171  1  0.72820000  0.63960000  0.61490000  1.0
  H  H172  1  0.77760000  0.58720000  0.71010000  1.0
  H  H173  1  0.74740000  0.58290000  0.82420000  1.0
  H  H174  1  0.91880000  0.60560000  0.61150000  1.0
  H  H175  1  0.86180000  0.60350000  0.61320000  1.0
  H  H176  1  0.88390000  0.65270000  0.40770000  1.0
  H  H177  1  0.94090000  0.65480000  0.40600000  1.0
  H  H178  1  0.45450000  0.38860000  0.17550000  1.0
  H  H179  1  0.39570000  0.34780000  0.14350000  1.0
  H  H180  1  0.38090000  0.34760000  0.22620000  1.0
  H  H181  1  0.42740000  0.37820000  0.32980000  1.0
  H  H182  1  0.48840000  0.39120000  0.36610000  1.0
  H  H183  1  0.48890000  0.42610000  0.33040000  1.0
  H  H184  1  0.50150000  0.40260000  0.28170000  1.0
  H  H185  1  0.44260000  0.32980000  0.33900000  1.0
  H  H186  1  0.45040000  0.33320000  0.25110000  1.0
  H  H187  1  0.41000000  0.31950000  0.28130000  1.0
  H  H188  1  0.45761000  0.95671000  0.64534000  1.0
  H  H189  1  0.43950000  0.98280000  0.25750000  1.0
  H  H190  1  0.46510000  0.96090000  0.34700000  1.0
  H  H191  1  0.57670000  0.17350000  0.95950000  1.0
  H  H192  1  0.62880000  0.23260000  0.96500000  1.0
  H  H193  1  0.56720000  0.27190000  0.06050000  1.0
  H  H194  1  0.51510000  0.21280000  0.05510000  1.0
  H  H195  1  0.67480000  0.28230000  0.00670000  1.0
  H  H196  1  0.40720000  0.15670000  0.19430000  1.0
  H  H197  1  0.39700000  0.18200000  0.30320000  1.0
  H  H198  1  0.35260000  0.08230000  0.40650000  1.0
  H  H199  1  0.36280000  0.05700000  0.29760000  1.0
  H  H200  1  0.36330000  0.19050000  0.39640000  1.0
  H  H201  1  0.38570000  0.20640000  0.62030000  1.0
  H  H202  1  0.38190000  0.11850000  0.51500000  1.0
  H  H203  1  0.36470000  0.06270000  0.72890000  1.0
  H  H204  1  0.36040000  0.08860000  0.61490000  1.0
  H  H205  1  0.41280000  0.19040000  0.71010000  1.0
  H  H206  1  0.41710000  0.16450000  0.82420000  1.0
  H  H207  1  0.39440000  0.31320000  0.61150000  1.0
  H  H208  1  0.39650000  0.25830000  0.61320000  1.0
  H  H209  1  0.34730000  0.23120000  0.40770000  1.0
  H  H210  1  0.34520000  0.28610000  0.40600000  1.0
  H  H211  1  0.61140000  0.06590000  0.17550000  1.0
  H  H212  1  0.65220000  0.04790000  0.14350000  1.0
  H  H213  1  0.65240000  0.03330000  0.22620000  1.0
  H  H214  1  0.62180000  0.04920000  0.32980000  1.0
  H  H215  1  0.60880000  0.09720000  0.36610000  1.0
  H  H216  1  0.57390000  0.06280000  0.33040000  1.0
  H  H217  1  0.59740000  0.09890000  0.28170000  1.0
  H  H218  1  0.67020000  0.11280000  0.33900000  1.0
  H  H219  1  0.66680000  0.11720000  0.25110000  1.0
  H  H220  1  0.68050000  0.09050000  0.28130000  1.0
  H  H221  1  0.04329000  0.50089000  0.64534000  1.0
  C  C222  1  0.97170000  0.43983000  0.86501000  1.0
  C  C223  1  0.98720000  0.46978000  0.80415000  1.0
  C  C224  1  0.01081000  0.47125000  0.74640000  1.0
  C  C225  1  0.02393000  0.49970000  0.69274000  1.0
  C  C226  1  0.01344000  0.52668000  0.69691000  1.0
  C  C227  1  0.98983000  0.52521000  0.75470000  1.0
  C  C228  1  0.97671000  0.49676000  0.80832000  1.0
  C  C229  1  0.02578000  0.55910000  0.64140000  1.0
  C  C230  1  0.14788000  0.64081000  0.51840000  1.0
  C  C231  1  0.18730000  0.64656000  0.50680000  1.0
  C  C232  1  0.19323000  0.61843000  0.47979000  1.0
  C  C233  1  0.22862000  0.62260000  0.48300000  1.0
  C  C234  1  0.25808000  0.65491000  0.51330000  1.0
  C  C235  1  0.25215000  0.68304000  0.54030000  1.0
  C  C236  1  0.21676000  0.67887000  0.53700000  1.0
  C  C237  1  0.29760000  0.66225000  0.50480000  1.0
  C  C238  1  0.30298000  0.63133000  0.50560000  1.0
  C  C239  1  0.09207000  0.69669000  0.65755000  1.0
  C  C240  1  0.10433000  0.71831000  0.73514000  1.0
  C  C241  1  0.14177000  0.74553000  0.73683000  1.0
  C  C242  1  0.15693000  0.76681000  0.80209000  1.0
  C  C243  1  0.13466000  0.76086000  0.86566000  1.0
  C  C244  1  0.09722000  0.73365000  0.86396000  1.0
  C  C245  1  0.08205000  0.71237000  0.79871000  1.0
  C  C246  1  0.15107000  0.77931000  0.94482000  1.0
  C  C247  1  0.18299000  0.81421000  0.94215000  1.0
  C  C248  1  0.20371000  0.82971000  0.00789000  1.0
  C  C249  1  0.19252000  0.81031000  0.07630000  1.0
  C  C250  1  0.16060000  0.77542000  0.07897000  1.0
  C  C251  1  0.13987000  0.75992000  0.01323000  1.0
  C  C252  1  0.09084000  0.69591000  0.35370000  1.0
  C  C253  1  0.11105000  0.71973000  0.28784000  1.0
  C  C254  1  0.08832000  0.71397000  0.22515000  1.0
  C  C255  1  0.10382000  0.73204000  0.15683000  1.0
  C  C256  1  0.14205000  0.75586000  0.15120000  1.0
  C  C257  1  0.16478000  0.76162000  0.21389000  1.0
  C  C258  1  0.14928000  0.74356000  0.28222000  1.0
  C  C259  1  0.34314000  0.97224000  0.01080000  1.0
  C  C260  1  0.30506000  0.93550000  0.00857000  1.0
  C  C261  1  0.29674000  0.91181000  0.07063000  1.0
  C  C262  1  0.26388000  0.87767000  0.07164000  1.0
  C  C263  1  0.23932000  0.86720000  0.01059000  1.0
  C  C264  1  0.24763000  0.89088000  0.94853000  1.0
  C  C265  1  0.28050000  0.92503000  0.94752000  1.0
  C  C266  1  0.04850000  0.43700000  0.71300000  1.0
  C  C267  1  0.03290000  0.39640000  0.68510000  1.0
  C  C268  1  0.98720000  0.41040000  0.67880000  1.0
  C  C269  1  0.06770000  0.44420000  0.79280000  1.0
  C  C270  1  0.08310000  0.48450000  0.82030000  1.0
  C  C271  1  0.10010000  0.43600000  0.79090000  1.0
  C  C272  1  0.56017000  0.53187000  0.86501000  1.0
  C  C273  1  0.53022000  0.51742000  0.80415000  1.0
  C  C274  1  0.52875000  0.53956000  0.74640000  1.0
  C  C275  1  0.50030000  0.52423000  0.69274000  1.0
  C  C276  1  0.47332000  0.48676000  0.69691000  1.0
  C  C277  1  0.47479000  0.46462000  0.75470000  1.0
  C  C278  1  0.50324000  0.47995000  0.80832000  1.0
  C  C279  1  0.44090000  0.46668000  0.64140000  1.0
  C  C280  1  0.35919000  0.50707000  0.51840000  1.0
  C  C281  1  0.35344000  0.54074000  0.50680000  1.0
  C  C282  1  0.38157000  0.57480000  0.47979000  1.0
  C  C283  1  0.37740000  0.60602000  0.48300000  1.0
  C  C284  1  0.34509000  0.60317000  0.51330000  1.0
  C  C285  1  0.31696000  0.56911000  0.54030000  1.0
  C  C286  1  0.32113000  0.53789000  0.53700000  1.0
  C  C287  1  0.33775000  0.63535000  0.50480000  1.0
  C  C288  1  0.36867000  0.67165000  0.50560000  1.0
  C  C289  1  0.30331000  0.39538000  0.65755000  1.0
  C  C290  1  0.28169000  0.38602000  0.73514000  1.0
  C  C291  1  0.25447000  0.39624000  0.73683000  1.0
  C  C292  1  0.23319000  0.39012000  0.80209000  1.0
  C  C293  1  0.23914000  0.37380000  0.86566000  1.0
  C  C294  1  0.26635000  0.36357000  0.86396000  1.0
  C  C295  1  0.28763000  0.36968000  0.79871000  1.0
  C  C296  1  0.22069000  0.37176000  0.94482000  1.0
  C  C297  1  0.18579000  0.36878000  0.94215000  1.0
  C  C298  1  0.17029000  0.37400000  0.00789000  1.0
  C  C299  1  0.18969000  0.38221000  0.07630000  1.0
  C  C300  1  0.22458000  0.38518000  0.07897000  1.0
  C  C301  1  0.24008000  0.37995000  0.01323000  1.0
  C  C302  1  0.30409000  0.39493000  0.35370000  1.0
  C  C303  1  0.28027000  0.39132000  0.28784000  1.0
  C  C304  1  0.28603000  0.37435000  0.22515000  1.0
  C  C305  1  0.26796000  0.37178000  0.15683000  1.0
  C  C306  1  0.24414000  0.38619000  0.15120000  1.0
  C  C307  1  0.23838000  0.40316000  0.21389000  1.0
  C  C308  1  0.25644000  0.40572000  0.28222000  1.0
  C  C309  1  0.02776000  0.37090000  0.01080000  1.0
  C  C310  1  0.06450000  0.36956000  0.00857000  1.0
  C  C311  1  0.08819000  0.38493000  0.07063000  1.0
  C  C312  1  0.12233000  0.38621000  0.07164000  1.0
  C  C313  1  0.13280000  0.37212000  0.01059000  1.0
  C  C314  1  0.10912000  0.35675000  0.94853000  1.0
  C  C315  1  0.07497000  0.35547000  0.94752000  1.0
  C  C316  1  0.56300000  0.61150000  0.71300000  1.0
  C  C317  1  0.60360000  0.63650000  0.68510000  1.0
  C  C318  1  0.58960000  0.57680000  0.67880000  1.0
  C  C319  1  0.55580000  0.62350000  0.79280000  1.0
  C  C320  1  0.51550000  0.59860000  0.82030000  1.0
  C  C321  1  0.56400000  0.66410000  0.79090000  1.0
  C  C322  1  0.46813000  0.02830000  0.86501000  1.0
  C  C323  1  0.48258000  0.01280000  0.80415000  1.0
  C  C324  1  0.46044000  0.98919000  0.74640000  1.0
  C  C325  1  0.47577000  0.97607000  0.69274000  1.0
  C  C326  1  0.51324000  0.98656000  0.69691000  1.0
  C  C327  1  0.53538000  0.01017000  0.75470000  1.0
  C  C328  1  0.52005000  0.02329000  0.80832000  1.0
  C  C329  1  0.53332000  0.97422000  0.64140000  1.0
  C  C330  1  0.49293000  0.85212000  0.51840000  1.0
  C  C331  1  0.45926000  0.81270000  0.50680000  1.0
  C  C332  1  0.42520000  0.80677000  0.47979000  1.0
  C  C333  1  0.39398000  0.77138000  0.48300000  1.0
  C  C334  1  0.39683000  0.74192000  0.51330000  1.0
  C  C335  1  0.43089000  0.74785000  0.54030000  1.0
  C  C336  1  0.46211000  0.78324000  0.53700000  1.0
  C  C337  1  0.36465000  0.70240000  0.50480000  1.0
  C  C338  1  0.32835000  0.69702000  0.50560000  1.0
  C  C339  1  0.60462000  0.90793000  0.65755000  1.0
  C  C340  1  0.61398000  0.89567000  0.73514000  1.0
  C  C341  1  0.60376000  0.85823000  0.73683000  1.0
  C  C342  1  0.60988000  0.84307000  0.80209000  1.0
  C  C343  1  0.62620000  0.86534000  0.86566000  1.0
  C  C344  1  0.63643000  0.90278000  0.86396000  1.0
  C  C345  1  0.63032000  0.91795000  0.79871000  1.0
  C  C346  1  0.62824000  0.84893000  0.94482000  1.0
  C  C347  1  0.63122000  0.81701000  0.94215000  1.0
  C  C348  1  0.62600000  0.79629000  0.00789000  1.0
  C  C349  1  0.61779000  0.80748000  0.07630000  1.0
  C  C350  1  0.61482000  0.83940000  0.07897000  1.0
  C  C351  1  0.62005000  0.86013000  0.01323000  1.0
  C  C352  1  0.60507000  0.90916000  0.35370000  1.0
  C  C353  1  0.60868000  0.88895000  0.28784000  1.0
  C  C354  1  0.62565000  0.91168000  0.22515000  1.0
  C  C355  1  0.62822000  0.89618000  0.15683000  1.0
  C  C356  1  0.61381000  0.85795000  0.15120000  1.0
  C  C357  1  0.59684000  0.83522000  0.21389000  1.0
  C  C358  1  0.59428000  0.85072000  0.28222000  1.0
  C  C359  1  0.62910000  0.65686000  0.01080000  1.0
  C  C360  1  0.63044000  0.69494000  0.00857000  1.0
  C  C361  1  0.61507000  0.70326000  0.07063000  1.0
  C  C362  1  0.61379000  0.73612000  0.07164000  1.0
  C  C363  1  0.62788000  0.76068000  0.01059000  1.0
  C  C364  1  0.64325000  0.75237000  0.94853000  1.0
  C  C365  1  0.64453000  0.71950000  0.94752000  1.0
  C  C366  1  0.38850000  0.95150000  0.71300000  1.0
  C  C367  1  0.36350000  0.96710000  0.68510000  1.0
  C  C368  1  0.42320000  0.01280000  0.67880000  1.0
  C  C369  1  0.37650000  0.93230000  0.79280000  1.0
  C  C370  1  0.40140000  0.91690000  0.82030000  1.0
  C  C371  1  0.33590000  0.89990000  0.79090000  1.0
  C  C372  1  0.02830000  0.56017000  0.36501000  1.0
  C  C373  1  0.01280000  0.53022000  0.30415000  1.0
  C  C374  1  0.98919000  0.52875000  0.24640000  1.0
  C  C375  1  0.97607000  0.50030000  0.19274000  1.0
  C  C376  1  0.98656000  0.47332000  0.19691000  1.0
  C  C377  1  0.01017000  0.47479000  0.25470000  1.0
  C  C378  1  0.02329000  0.50324000  0.30832000  1.0
  C  C379  1  0.97422000  0.44090000  0.14140000  1.0
  C  C380  1  0.85212000  0.35919000  0.01840000  1.0
  C  C381  1  0.81270000  0.35344000  0.00680000  1.0
  C  C382  1  0.80677000  0.38157000  0.97979000  1.0
  C  C383  1  0.77138000  0.37740000  0.98300000  1.0
  C  C384  1  0.74192000  0.34509000  0.01330000  1.0
  C  C385  1  0.74785000  0.31696000  0.04030000  1.0
  C  C386  1  0.78324000  0.32113000  0.03700000  1.0
  C  C387  1  0.70240000  0.33775000  0.00480000  1.0
  C  C388  1  0.69702000  0.36867000  0.00560000  1.0
  C  C389  1  0.90793000  0.30331000  0.15755000  1.0
  C  C390  1  0.89567000  0.28169000  0.23514000  1.0
  C  C391  1  0.85823000  0.25447000  0.23683000  1.0
  C  C392  1  0.84307000  0.23319000  0.30209000  1.0
  C  C393  1  0.86534000  0.23914000  0.36566000  1.0
  C  C394  1  0.90278000  0.26635000  0.36396000  1.0
  C  C395  1  0.91795000  0.28763000  0.29871000  1.0
  C  C396  1  0.84893000  0.22069000  0.44482000  1.0
  C  C397  1  0.81701000  0.18579000  0.44215000  1.0
  C  C398  1  0.79629000  0.17029000  0.50789000  1.0
  C  C399  1  0.80748000  0.18969000  0.57630000  1.0
  C  C400  1  0.83940000  0.22458000  0.57897000  1.0
  C  C401  1  0.86013000  0.24008000  0.51323000  1.0
  C  C402  1  0.90916000  0.30409000  0.85370000  1.0
  C  C403  1  0.88895000  0.28027000  0.78784000  1.0
  C  C404  1  0.91168000  0.28603000  0.72515000  1.0
  C  C405  1  0.89618000  0.26796000  0.65683000  1.0
  C  C406  1  0.85795000  0.24414000  0.65120000  1.0
  C  C407  1  0.83522000  0.23838000  0.71389000  1.0
  C  C408  1  0.85072000  0.25644000  0.78222000  1.0
  C  C409  1  0.65686000  0.02776000  0.51080000  1.0
  C  C410  1  0.69494000  0.06450000  0.50857000  1.0
  C  C411  1  0.70326000  0.08819000  0.57063000  1.0
  C  C412  1  0.73612000  0.12233000  0.57164000  1.0
  C  C413  1  0.76068000  0.13280000  0.51059000  1.0
  C  C414  1  0.75237000  0.10912000  0.44853000  1.0
  C  C415  1  0.71950000  0.07497000  0.44752000  1.0
  C  C416  1  0.95150000  0.56300000  0.21300000  1.0
  C  C417  1  0.96710000  0.60360000  0.18510000  1.0
  C  C418  1  0.01280000  0.58960000  0.17880000  1.0
  C  C419  1  0.93230000  0.55580000  0.29280000  1.0
  C  C420  1  0.91690000  0.51550000  0.32030000  1.0
  C  C421  1  0.89990000  0.56400000  0.29090000  1.0
  C  C422  1  0.43983000  0.46813000  0.36501000  1.0
  C  C423  1  0.46978000  0.48258000  0.30415000  1.0
  C  C424  1  0.47125000  0.46044000  0.24640000  1.0
  C  C425  1  0.49970000  0.47577000  0.19274000  1.0
  C  C426  1  0.52668000  0.51324000  0.19691000  1.0
  C  C427  1  0.52521000  0.53538000  0.25470000  1.0
  C  C428  1  0.49676000  0.52005000  0.30832000  1.0
  C  C429  1  0.55910000  0.53332000  0.14140000  1.0
  C  C430  1  0.64081000  0.49293000  0.01840000  1.0
  C  C431  1  0.64656000  0.45926000  0.00680000  1.0
  C  C432  1  0.61843000  0.42520000  0.97979000  1.0
  C  C433  1  0.62260000  0.39398000  0.98300000  1.0
  C  C434  1  0.65491000  0.39683000  0.01330000  1.0
  C  C435  1  0.68304000  0.43089000  0.04030000  1.0
  C  C436  1  0.67887000  0.46211000  0.03700000  1.0
  C  C437  1  0.66225000  0.36465000  0.00480000  1.0
  C  C438  1  0.63133000  0.32835000  0.00560000  1.0
  C  C439  1  0.69669000  0.60462000  0.15755000  1.0
  C  C440  1  0.71831000  0.61398000  0.23514000  1.0
  C  C441  1  0.74553000  0.60376000  0.23683000  1.0
  C  C442  1  0.76681000  0.60988000  0.30209000  1.0
  C  C443  1  0.76086000  0.62620000  0.36566000  1.0
  C  C444  1  0.73365000  0.63643000  0.36396000  1.0
  C  C445  1  0.71237000  0.63032000  0.29871000  1.0
  C  C446  1  0.77931000  0.62824000  0.44482000  1.0
  C  C447  1  0.81421000  0.63122000  0.44215000  1.0
  C  C448  1  0.82971000  0.62600000  0.50789000  1.0
  C  C449  1  0.81031000  0.61779000  0.57630000  1.0
  C  C450  1  0.77542000  0.61482000  0.57897000  1.0
  C  C451  1  0.75992000  0.62005000  0.51323000  1.0
  C  C452  1  0.69591000  0.60507000  0.85370000  1.0
  C  C453  1  0.71973000  0.60868000  0.78784000  1.0
  C  C454  1  0.71397000  0.62565000  0.72515000  1.0
  C  C455  1  0.73204000  0.62822000  0.65683000  1.0
  C  C456  1  0.75586000  0.61381000  0.65120000  1.0
  C  C457  1  0.76162000  0.59684000  0.71389000  1.0
  C  C458  1  0.74356000  0.59428000  0.78222000  1.0
  C  C459  1  0.97224000  0.62910000  0.51080000  1.0
  C  C460  1  0.93550000  0.63044000  0.50857000  1.0
  C  C461  1  0.91181000  0.61507000  0.57063000  1.0
  C  C462  1  0.87767000  0.61379000  0.57164000  1.0
  C  C463  1  0.86720000  0.62788000  0.51059000  1.0
  C  C464  1  0.89088000  0.64325000  0.44853000  1.0
  C  C465  1  0.92503000  0.64453000  0.44752000  1.0
  C  C466  1  0.43700000  0.38850000  0.21300000  1.0
  C  C467  1  0.39640000  0.36350000  0.18510000  1.0
  C  C468  1  0.41040000  0.42320000  0.17880000  1.0
  C  C469  1  0.44420000  0.37650000  0.29280000  1.0
  C  C470  1  0.48450000  0.40140000  0.32030000  1.0
  C  C471  1  0.43600000  0.33590000  0.29090000  1.0
  C  C472  1  0.53187000  0.97170000  0.36501000  1.0
  C  C473  1  0.51742000  0.98720000  0.30415000  1.0
  C  C474  1  0.53956000  0.01081000  0.24640000  1.0
  C  C475  1  0.52423000  0.02393000  0.19274000  1.0
  C  C476  1  0.48676000  0.01344000  0.19691000  1.0
  C  C477  1  0.46462000  0.98983000  0.25470000  1.0
  C  C478  1  0.47995000  0.97671000  0.30832000  1.0
  C  C479  1  0.46668000  0.02578000  0.14140000  1.0
  C  C480  1  0.50707000  0.14788000  0.01840000  1.0
  C  C481  1  0.54074000  0.18730000  0.00680000  1.0
  C  C482  1  0.57480000  0.19323000  0.97979000  1.0
  C  C483  1  0.60602000  0.22862000  0.98300000  1.0
  C  C484  1  0.60317000  0.25808000  0.01330000  1.0
  C  C485  1  0.56911000  0.25215000  0.04030000  1.0
  C  C486  1  0.53789000  0.21676000  0.03700000  1.0
  C  C487  1  0.63535000  0.29760000  0.00480000  1.0
  C  C488  1  0.67165000  0.30298000  0.00560000  1.0
  C  C489  1  0.39538000  0.09207000  0.15755000  1.0
  C  C490  1  0.38602000  0.10433000  0.23514000  1.0
  C  C491  1  0.39624000  0.14177000  0.23683000  1.0
  C  C492  1  0.39012000  0.15693000  0.30209000  1.0
  C  C493  1  0.37380000  0.13466000  0.36566000  1.0
  C  C494  1  0.36357000  0.09722000  0.36396000  1.0
  C  C495  1  0.36968000  0.08205000  0.29871000  1.0
  C  C496  1  0.37176000  0.15107000  0.44482000  1.0
  C  C497  1  0.36878000  0.18299000  0.44215000  1.0
  C  C498  1  0.37400000  0.20371000  0.50789000  1.0
  C  C499  1  0.38221000  0.19252000  0.57630000  1.0
  C  C500  1  0.38518000  0.16060000  0.57897000  1.0
  C  C501  1  0.37995000  0.13987000  0.51323000  1.0
  C  C502  1  0.39493000  0.09084000  0.85370000  1.0
  C  C503  1  0.39132000  0.11105000  0.78784000  1.0
  C  C504  1  0.37435000  0.08832000  0.72515000  1.0
  C  C505  1  0.37178000  0.10382000  0.65683000  1.0
  C  C506  1  0.38619000  0.14205000  0.65120000  1.0
  C  C507  1  0.40316000  0.16478000  0.71389000  1.0
  C  C508  1  0.40572000  0.14928000  0.78222000  1.0
  C  C509  1  0.37090000  0.34314000  0.51080000  1.0
  C  C510  1  0.36956000  0.30506000  0.50857000  1.0
  C  C511  1  0.38493000  0.29674000  0.57063000  1.0
  C  C512  1  0.38621000  0.26388000  0.57164000  1.0
  C  C513  1  0.37212000  0.23932000  0.51059000  1.0
  C  C514  1  0.35675000  0.24763000  0.44853000  1.0
  C  C515  1  0.35547000  0.28050000  0.44752000  1.0
  C  C516  1  0.61150000  0.04850000  0.21300000  1.0
  C  C517  1  0.63650000  0.03290000  0.18510000  1.0
  C  C518  1  0.57680000  0.98720000  0.17880000  1.0
  C  C519  1  0.62350000  0.06770000  0.29280000  1.0
  C  C520  1  0.59860000  0.08310000  0.32030000  1.0
  C  C521  1  0.66410000  0.10010000  0.29090000  1.0
  N  N522  1  0.01530000  0.44080000  0.71750000  1.0
  N  N523  1  0.55920000  0.57450000  0.71750000  1.0
  N  N524  1  0.42550000  0.98470000  0.71750000  1.0
  N  N525  1  0.98470000  0.55920000  0.21750000  1.0
  N  N526  1  0.44080000  0.42550000  0.21750000  1.0
  N  N527  1  0.57450000  0.01530000  0.21750000  1.0
  O  O528  1  0.05776000  0.63162000  0.50952000  1.0
  O  O529  1  0.95283000  0.44081000  0.91993000  1.0
  O  O530  1  0.97535000  0.41206000  0.85559000  1.0
  O  O531  1  0.01426000  0.58170000  0.65080000  1.0
  O  O532  1  0.04898000  0.55904000  0.59549000  1.0
  O  O533  1  0.14599000  0.66959000  0.49530000  1.0
  O  O534  1  0.12246000  0.60905000  0.49780000  1.0
  O  O535  1  0.11046000  0.70723000  0.59661000  1.0
  O  O536  1  0.06104000  0.66839000  0.66750000  1.0
  O  O537  1  0.05683000  0.67156000  0.35580000  1.0
  O  O538  1  0.11414000  0.70394000  0.40645000  1.0
  O  O539  1  0.35291000  0.98781000  0.94712000  1.0
  O  O540  1  0.35575000  0.98292000  0.07670000  1.0
  O  O541  1  0.99550000  0.38300000  0.66020000  1.0
  O  O542  1  0.95640000  0.40640000  0.66790000  1.0
  O  O543  1  0.36838000  0.42614000  0.50952000  1.0
  O  O544  1  0.55919000  0.51202000  0.91993000  1.0
  O  O545  1  0.58794000  0.56329000  0.85559000  1.0
  O  O546  1  0.41830000  0.43256000  0.65080000  1.0
  O  O547  1  0.44096000  0.48994000  0.59549000  1.0
  O  O548  1  0.33041000  0.47640000  0.49530000  1.0
  O  O549  1  0.39095000  0.51341000  0.49780000  1.0
  O  O550  1  0.29277000  0.40323000  0.59661000  1.0
  O  O551  1  0.33161000  0.39265000  0.66750000  1.0
  O  O552  1  0.32844000  0.38527000  0.35580000  1.0
  O  O553  1  0.29606000  0.41020000  0.40645000  1.0
  O  O554  1  0.01219000  0.36510000  0.94712000  1.0
  O  O555  1  0.01708000  0.37283000  0.07670000  1.0
  O  O556  1  0.61700000  0.61250000  0.66020000  1.0
  O  O557  1  0.59360000  0.55000000  0.66790000  1.0
  O  O558  1  0.57386000  0.94224000  0.50952000  1.0
  O  O559  1  0.48798000  0.04717000  0.91993000  1.0
  O  O560  1  0.43671000  0.02465000  0.85559000  1.0
  O  O561  1  0.56744000  0.98574000  0.65080000  1.0
  O  O562  1  0.51006000  0.95102000  0.59549000  1.0
  O  O563  1  0.52360000  0.85401000  0.49530000  1.0
  O  O564  1  0.48659000  0.87754000  0.49780000  1.0
  O  O565  1  0.59677000  0.88954000  0.59661000  1.0
  O  O566  1  0.60735000  0.93896000  0.66750000  1.0
  O  O567  1  0.61473000  0.94317000  0.35580000  1.0
  O  O568  1  0.58980000  0.88586000  0.40645000  1.0
  O  O569  1  0.63490000  0.64709000  0.94712000  1.0
  O  O570  1  0.62717000  0.64425000  0.07670000  1.0
  O  O571  1  0.38750000  0.00450000  0.66020000  1.0
  O  O572  1  0.45000000  0.04360000  0.66790000  1.0
  O  O573  1  0.94224000  0.36838000  0.00952000  1.0
  O  O574  1  0.04717000  0.55919000  0.41993000  1.0
  O  O575  1  0.02465000  0.58794000  0.35559000  1.0
  O  O576  1  0.98574000  0.41830000  0.15080000  1.0
  O  O577  1  0.95102000  0.44096000  0.09549000  1.0
  O  O578  1  0.85401000  0.33041000  0.99530000  1.0
  O  O579  1  0.87754000  0.39095000  0.99780000  1.0
  O  O580  1  0.88954000  0.29277000  0.09661000  1.0
  O  O581  1  0.93896000  0.33161000  0.16750000  1.0
  O  O582  1  0.94317000  0.32844000  0.85580000  1.0
  O  O583  1  0.88586000  0.29606000  0.90645000  1.0
  O  O584  1  0.64709000  0.01219000  0.44712000  1.0
  O  O585  1  0.64425000  0.01708000  0.57670000  1.0
  O  O586  1  0.00450000  0.61700000  0.16020000  1.0
  O  O587  1  0.04360000  0.59360000  0.16790000  1.0
  O  O588  1  0.63162000  0.57386000  0.00952000  1.0
  O  O589  1  0.44081000  0.48798000  0.41993000  1.0
  O  O590  1  0.41206000  0.43671000  0.35559000  1.0
  O  O591  1  0.58170000  0.56744000  0.15080000  1.0
  O  O592  1  0.55904000  0.51006000  0.09549000  1.0
  O  O593  1  0.66959000  0.52360000  0.99530000  1.0
  O  O594  1  0.60905000  0.48659000  0.99780000  1.0
  O  O595  1  0.70723000  0.59677000  0.09661000  1.0
  O  O596  1  0.66839000  0.60735000  0.16750000  1.0
  O  O597  1  0.67156000  0.61473000  0.85580000  1.0
  O  O598  1  0.70394000  0.58980000  0.90645000  1.0
  O  O599  1  0.98781000  0.63490000  0.44712000  1.0
  O  O600  1  0.98292000  0.62717000  0.57670000  1.0
  O  O601  1  0.38300000  0.38750000  0.16020000  1.0
  O  O602  1  0.40640000  0.45000000  0.16790000  1.0
  O  O603  1  0.42614000  0.05776000  0.00952000  1.0
  O  O604  1  0.51202000  0.95283000  0.41993000  1.0
  O  O605  1  0.56329000  0.97535000  0.35559000  1.0
  O  O606  1  0.43256000  0.01426000  0.15080000  1.0
  O  O607  1  0.48994000  0.04898000  0.09549000  1.0
  O  O608  1  0.47640000  0.14599000  0.99530000  1.0
  O  O609  1  0.51341000  0.12246000  0.99780000  1.0
  O  O610  1  0.40323000  0.11046000  0.09661000  1.0
  O  O611  1  0.39265000  0.06104000  0.16750000  1.0
  O  O612  1  0.38527000  0.05683000  0.85580000  1.0
  O  O613  1  0.41020000  0.11414000  0.90645000  1.0
  O  O614  1  0.36510000  0.35291000  0.44712000  1.0
  O  O615  1  0.37283000  0.35575000  0.57670000  1.0
  O  O616  1  0.61250000  0.99550000  0.16020000  1.0
  O  O617  1  0.55000000  0.95640000  0.16790000  1.0
