# generated using pymatgen
data_V6Ni4H12C20N8O23
_symmetry_space_group_name_H-M   'P 1'
_cell_length_a   12.26790000
_cell_length_b   13.91990000
_cell_length_c   13.91990000
_cell_angle_alpha   78.80320000
_cell_angle_beta   63.85410000
_cell_angle_gamma   63.85410000
_symmetry_Int_Tables_number   1
_chemical_formula_structural   V6Ni4H12C20N8O23
_chemical_formula_sum   'V12 Ni8 H24 C40 N16 O46'
_cell_volume   1915.49301743
_cell_formula_units_Z   2
loop_
 _symmetry_equiv_pos_site_id
 _symmetry_equiv_pos_as_xyz
  1  'x, y, z'
loop_
 _atom_site_type_symbol
 _atom_site_label
 _atom_site_symmetry_multiplicity
 _atom_site_fract_x
 _atom_site_fract_y
 _atom_site_fract_z
 _atom_site_occupancy
  V  V0  1  0.66259000  0.50353000  0.20691000  1.0
  V  V1  1  0.08728000  0.49904000  0.79766000  1.0
  V  V2  1  0.65354000  0.37736000  0.43356000  1.0
  V  V3  1  0.37303000  0.49647000  0.79309000  1.0
  V  V4  1  0.38398000  0.50096000  0.20234000  1.0
  V  V5  1  0.46446000  0.62264000  0.56644000  1.0
  V  V6  1  0.86950000  0.79309000  0.50353000  1.0
  V  V7  1  0.88494000  0.20234000  0.49904000  1.0
  V  V8  1  0.08710000  0.56644000  0.37736000  1.0
  V  V9  1  0.16612000  0.20691000  0.49647000  1.0
  V  V10  1  0.58632000  0.79766000  0.50096000  1.0
  V  V11  1  0.03090000  0.43356000  0.62264000  1.0
  Ni  Ni12  1  0.95433000  0.33243000  0.00227000  1.0
  Ni  Ni13  1  0.62662000  0.22877000  0.76867000  1.0
  Ni  Ni14  1  0.28903000  0.66757000  0.99773000  1.0
  Ni  Ni15  1  0.62406000  0.77123000  0.23133000  1.0
  Ni  Ni16  1  0.95660000  0.99773000  0.33243000  1.0
  Ni  Ni17  1  0.39529000  0.23133000  0.22877000  1.0
  Ni  Ni18  1  0.28676000  0.00227000  0.66757000  1.0
  Ni  Ni19  1  0.85539000  0.76867000  0.77123000  1.0
  H  H20  1  0.66710000  0.44480000  0.99060000  1.0
  H  H21  1  0.56520000  0.39950000  0.91410000  1.0
  H  H22  1  0.89740000  0.16010000  0.76830000  1.0
  H  H23  1  0.07570000  0.32000000  0.30720000  1.0
  H  H24  1  0.93890000  0.34800000  0.22340000  1.0
  H  H25  1  0.23990000  0.28660000  0.94580000  1.0
  H  H26  1  0.10250000  0.55520000  0.00940000  1.0
  H  H27  1  0.87880000  0.60050000  0.08590000  1.0
  H  H28  1  0.82580000  0.83990000  0.23170000  1.0
  H  H29  1  0.70290000  0.68000000  0.69280000  1.0
  H  H30  1  0.51030000  0.65200000  0.77660000  1.0
  H  H31  1  0.47230000  0.71340000  0.05420000  1.0
  H  H32  1  0.65770000  0.00940000  0.44480000  1.0
  H  H33  1  0.47930000  0.08590000  0.39950000  1.0
  H  H34  1  0.66570000  0.23170000  0.16010000  1.0
  H  H35  1  0.38290000  0.69280000  0.32000000  1.0
  H  H36  1  0.16230000  0.77660000  0.34800000  1.0
  H  H37  1  0.18570000  0.05420000  0.28660000  1.0
  H  H38  1  0.11190000  0.99060000  0.55520000  1.0
  H  H39  1  0.96470000  0.91410000  0.60050000  1.0
  H  H40  1  0.05750000  0.76830000  0.83990000  1.0
  H  H41  1  0.39570000  0.30720000  0.68000000  1.0
  H  H42  1  0.28690000  0.22340000  0.65200000  1.0
  H  H43  1  0.52650000  0.94580000  0.71340000  1.0
  C  C44  1  0.71520000  0.38500000  0.94640000  1.0
  C  C45  1  0.65430000  0.35800000  0.89980000  1.0
  C  C46  1  0.84750000  0.21810000  0.81490000  1.0
  C  C47  1  0.90690000  0.24530000  0.86190000  1.0
  C  C48  1  0.05410000  0.18280000  0.84060000  1.0
  C  C49  1  0.11120000  0.31270000  0.23330000  1.0
  C  C50  1  0.02910000  0.32930000  0.18230000  1.0
  C  C51  1  0.20480000  0.29300000  0.01980000  1.0
  C  C52  1  0.28970000  0.27490000  0.07010000  1.0
  C  C53  1  0.43420000  0.24120000  0.01140000  1.0
  C  C54  1  0.04660000  0.61500000  0.05360000  1.0
  C  C55  1  0.91210000  0.64200000  0.10020000  1.0
  C  C56  1  0.88050000  0.78190000  0.18510000  1.0
  C  C57  1  0.01410000  0.75470000  0.13810000  1.0
  C  C58  1  0.07750000  0.81720000  0.15940000  1.0
  C  C59  1  0.65720000  0.68730000  0.76670000  1.0
  C  C60  1  0.54070000  0.67070000  0.81770000  1.0
  C  C61  1  0.51760000  0.70700000  0.98020000  1.0
  C  C62  1  0.63470000  0.72510000  0.92990000  1.0
  C  C63  1  0.68680000  0.75880000  0.98860000  1.0
  C  C64  1  0.66160000  0.05360000  0.38500000  1.0
  C  C65  1  0.55410000  0.10020000  0.35800000  1.0
  C  C66  1  0.66240000  0.18510000  0.21810000  1.0
  C  C67  1  0.76880000  0.13810000  0.24530000  1.0
  C  C68  1  0.89470000  0.15940000  0.18280000  1.0
  C  C69  1  0.34450000  0.76670000  0.31270000  1.0
  C  C70  1  0.21140000  0.81770000  0.32930000  1.0
  C  C71  1  0.22460000  0.98020000  0.29300000  1.0
  C  C72  1  0.35980000  0.92990000  0.27490000  1.0
  C  C73  1  0.44560000  0.98860000  0.24120000  1.0
  C  C74  1  0.10020000  0.94640000  0.61500000  1.0
  C  C75  1  0.01230000  0.89980000  0.64200000  1.0
  C  C76  1  0.06560000  0.81490000  0.78190000  1.0
  C  C77  1  0.15220000  0.86190000  0.75470000  1.0
  C  C78  1  0.23690000  0.84060000  0.81720000  1.0
  C  C79  1  0.42390000  0.23330000  0.68730000  1.0
  C  C80  1  0.35840000  0.18230000  0.67070000  1.0
  C  C81  1  0.49780000  0.01980000  0.70700000  1.0
  C  C82  1  0.56460000  0.07010000  0.72510000  1.0
  C  C83  1  0.67540000  0.01140000  0.75880000  1.0
  N  N84  1  0.84400000  0.32590000  0.92870000  1.0
  N  N85  1  0.71980000  0.27300000  0.83420000  1.0
  N  N86  1  0.23980000  0.28660000  0.17680000  1.0
  N  N87  1  0.07490000  0.31920000  0.07600000  1.0
  N  N88  1  0.09860000  0.67410000  0.07130000  1.0
  N  N89  1  0.82700000  0.72700000  0.16580000  1.0
  N  N90  1  0.70320000  0.71340000  0.82320000  1.0
  N  N91  1  0.47010000  0.68080000  0.92400000  1.0
  N  N92  1  0.77270000  0.07130000  0.32590000  1.0
  N  N93  1  0.55400000  0.16580000  0.27300000  1.0
  N  N94  1  0.41660000  0.82320000  0.28660000  1.0
  N  N95  1  0.15090000  0.92400000  0.31920000  1.0
  N  N96  1  0.16990000  0.92870000  0.67410000  1.0
  N  N97  1  0.99280000  0.83420000  0.72700000  1.0
  N  N98  1  0.52640000  0.17680000  0.71340000  1.0
  N  N99  1  0.39410000  0.07600000  0.68080000  1.0
  O  O100  1  0.09780000  0.21150000  0.89170000  1.0
  O  O101  1  0.11640000  0.10950000  0.77290000  1.0
  O  O102  1  0.50450000  0.21570000  0.06470000  1.0
  O  O103  1  0.47220000  0.24230000  0.91130000  1.0
  O  O104  1  0.79800000  0.46130000  0.09850000  1.0
  O  O105  1  0.51150000  0.38800000  0.74560000  1.0
  O  O106  1  0.67540000  0.39660000  0.30040000  1.0
  O  O107  1  0.52170000  0.52890000  0.18330000  1.0
  O  O108  1  0.99920000  0.44810000  0.89970000  1.0
  O  O109  1  0.78310000  0.21480000  0.62660000  1.0
  O  O110  1  0.13630000  0.43240000  0.67660000  1.0
  O  O111  1  0.20100000  0.78850000  0.10830000  1.0
  O  O112  1  0.99880000  0.89050000  0.22710000  1.0
  O  O113  1  0.78490000  0.78430000  0.93530000  1.0
  O  O114  1  0.62580000  0.75770000  0.08870000  1.0
  O  O115  1  0.35780000  0.53870000  0.90150000  1.0
  O  O116  1  0.64510000  0.61200000  0.25440000  1.0
  O  O117  1  0.37240000  0.60340000  0.69960000  1.0
  O  O118  1  0.23390000  0.47110000  0.81670000  1.0
  O  O119  1  0.34700000  0.55190000  0.10030000  1.0
  O  O120  1  0.62450000  0.78520000  0.37340000  1.0
  O  O121  1  0.24530000  0.56760000  0.32340000  1.0
  O  O122  1  0.98950000  0.10830000  0.21150000  1.0
  O  O123  1  0.88930000  0.22710000  0.10950000  1.0
  O  O124  1  0.56920000  0.93530000  0.21570000  1.0
  O  O125  1  0.38350000  0.08870000  0.24230000  1.0
  O  O126  1  0.89650000  0.90150000  0.46130000  1.0
  O  O127  1  0.25710000  0.25440000  0.38800000  1.0
  O  O128  1  0.97580000  0.69960000  0.39660000  1.0
  O  O129  1  0.70500000  0.81670000  0.52890000  1.0
  O  O130  1  0.89890000  0.10030000  0.44810000  1.0
  O  O131  1  0.40970000  0.37340000  0.21480000  1.0
  O  O132  1  0.81290000  0.32340000  0.43240000  1.0
  O  O133  1  0.30930000  0.89170000  0.78850000  1.0
  O  O134  1  0.22590000  0.77290000  0.89050000  1.0
  O  O135  1  0.72020000  0.06470000  0.78430000  1.0
  O  O136  1  0.71450000  0.91130000  0.75770000  1.0
  O  O137  1  0.25930000  0.09850000  0.53870000  1.0
  O  O138  1  0.89950000  0.74560000  0.61200000  1.0
  O  O139  1  0.07200000  0.30040000  0.60340000  1.0
  O  O140  1  0.05060000  0.18330000  0.47110000  1.0
  O  O141  1  0.44730000  0.89970000  0.55190000  1.0
  O  O142  1  0.99790000  0.62660000  0.78520000  1.0
  O  O143  1  0.56870000  0.67660000  0.56760000  1.0
  O  O144  1  0.54960000  0.50000000  0.50000000  1.0
  O  O145  1  0.04960000  0.50000000  0.50000000  1.0
