# generated using pymatgen
data_MnH5C11O4
_symmetry_space_group_name_H-M   'P 1'
_cell_length_a   7.45740000
_cell_length_b   12.46300000
_cell_length_c   29.45100000
_cell_angle_alpha   96.32400000
_cell_angle_beta   90.00000000
_cell_angle_gamma   90.00000000
_symmetry_Int_Tables_number   1
_chemical_formula_structural   MnH5C11O4
_chemical_formula_sum   'Mn8 H40 C88 O32'
_cell_volume   2720.56609670
_cell_formula_units_Z   8
loop_
 _symmetry_equiv_pos_site_id
 _symmetry_equiv_pos_as_xyz
  1  'x, y, z'
loop_
 _atom_site_type_symbol
 _atom_site_label
 _atom_site_symmetry_multiplicity
 _atom_site_fract_x
 _atom_site_fract_y
 _atom_site_fract_z
 _atom_site_occupancy
  Mn  Mn0  1  0.43186000  0.48411000  0.76729000  1.0
  Mn  Mn1  1  0.93186000  0.51589000  0.73271000  1.0
  Mn  Mn2  1  0.56814000  0.51589000  0.23271000  1.0
  Mn  Mn3  1  0.06814000  0.48411000  0.26729000  1.0
  Mn  Mn4  1  0.50000000  0.00000000  0.50000000  1.0
  Mn  Mn5  1  0.00000000  0.00000000  0.00000000  1.0
  Mn  Mn6  1  0.00000000  0.00000000  0.50000000  1.0
  Mn  Mn7  1  0.50000000  0.00000000  0.00000000  1.0
  H  H8  1  0.46200000  0.35920000  0.51280000  1.0
  H  H9  1  0.46460000  0.53510000  0.54580000  1.0
  H  H10  1  0.12930000  0.45490000  0.64260000  1.0
  H  H11  1  0.10440000  0.28470000  0.60530000  1.0
  H  H12  1  0.27090000  0.69310000  0.55740000  1.0
  H  H13  1  0.24100000  0.78880000  0.71250000  1.0
  H  H14  1  0.99930000  0.99870000  0.63190000  1.0
  H  H15  1  0.96470000  0.17760000  0.66080000  1.0
  H  H16  1  0.37350000  0.14830000  0.74690000  1.0
  H  H17  1  0.39550000  0.96700000  0.72070000  1.0
  H  H18  1  0.96200000  0.64080000  0.98720000  1.0
  H  H19  1  0.96460000  0.46490000  0.95420000  1.0
  H  H20  1  0.62930000  0.54510000  0.85740000  1.0
  H  H21  1  0.60440000  0.71530000  0.89470000  1.0
  H  H22  1  0.77090000  0.30690000  0.94260000  1.0
  H  H23  1  0.74100000  0.21120000  0.78750000  1.0
  H  H24  1  0.49930000  0.00130000  0.86810000  1.0
  H  H25  1  0.46470000  0.82240000  0.83920000  1.0
  H  H26  1  0.87350000  0.85170000  0.75310000  1.0
  H  H27  1  0.89550000  0.03300000  0.77930000  1.0
  H  H28  1  0.53800000  0.64080000  0.48720000  1.0
  H  H29  1  0.53540000  0.46490000  0.45420000  1.0
  H  H30  1  0.87070000  0.54510000  0.35740000  1.0
  H  H31  1  0.89560000  0.71530000  0.39470000  1.0
  H  H32  1  0.72910000  0.30690000  0.44260000  1.0
  H  H33  1  0.75900000  0.21120000  0.28750000  1.0
  H  H34  1  0.00070000  0.00130000  0.36810000  1.0
  H  H35  1  0.03530000  0.82240000  0.33920000  1.0
  H  H36  1  0.62650000  0.85170000  0.25310000  1.0
  H  H37  1  0.60450000  0.03300000  0.27930000  1.0
  H  H38  1  0.03800000  0.35920000  0.01280000  1.0
  H  H39  1  0.03540000  0.53510000  0.04580000  1.0
  H  H40  1  0.37070000  0.45490000  0.14260000  1.0
  H  H41  1  0.39560000  0.28470000  0.10530000  1.0
  H  H42  1  0.22910000  0.69310000  0.05740000  1.0
  H  H43  1  0.25900000  0.78880000  0.21250000  1.0
  H  H44  1  0.50070000  0.99870000  0.13190000  1.0
  H  H45  1  0.53530000  0.17760000  0.16080000  1.0
  H  H46  1  0.12650000  0.14830000  0.24690000  1.0
  H  H47  1  0.10450000  0.96700000  0.22070000  1.0
  C  C48  1  0.26640000  0.19080000  0.53153000  1.0
  C  C49  1  0.27830000  0.30330000  0.55454000  1.0
  C  C50  1  0.38950000  0.37930000  0.53803000  1.0
  C  C51  1  0.39410000  0.48450000  0.55845000  1.0
  C  C52  1  0.29610000  0.51560000  0.59719000  1.0
  C  C53  1  0.19130000  0.43700000  0.61546000  1.0
  C  C54  1  0.17980000  0.33440000  0.59366000  1.0
  C  C55  1  0.28550000  0.63050000  0.61774000  1.0
  C  C56  1  0.26710000  0.71220000  0.58882000  1.0
  C  C57  1  0.24370000  0.81990000  0.60495000  1.0
  C  C58  1  0.23080000  0.89750000  0.56893000  1.0
  C  C59  1  0.23280000  0.85070000  0.65210000  1.0
  C  C60  1  0.24910000  0.77000000  0.68109000  1.0
  C  C61  1  0.27710000  0.66220000  0.66471000  1.0
  C  C62  1  0.31110000  0.58510000  0.69958000  1.0
  C  C63  1  0.20530000  0.96610000  0.67172000  1.0
  C  C64  1  0.07510000  0.02870000  0.65495000  1.0
  C  C65  1  0.05520000  0.13640000  0.67201000  1.0
  C  C66  1  0.16990000  0.18290000  0.70575000  1.0
  C  C67  1  0.29760000  0.11860000  0.72378000  1.0
  C  C68  1  0.31300000  0.01030000  0.70755000  1.0
  C  C69  1  0.16290000  0.30420000  0.72023000  1.0
  C  C70  1  0.76640000  0.80920000  0.96847000  1.0
  C  C71  1  0.77830000  0.69670000  0.94546000  1.0
  C  C72  1  0.88950000  0.62070000  0.96197000  1.0
  C  C73  1  0.89410000  0.51550000  0.94155000  1.0
  C  C74  1  0.79610000  0.48440000  0.90281000  1.0
  C  C75  1  0.69130000  0.56300000  0.88454000  1.0
  C  C76  1  0.67980000  0.66560000  0.90634000  1.0
  C  C77  1  0.78550000  0.36950000  0.88226000  1.0
  C  C78  1  0.76710000  0.28780000  0.91118000  1.0
  C  C79  1  0.74370000  0.18010000  0.89505000  1.0
  C  C80  1  0.73080000  0.10250000  0.93107000  1.0
  C  C81  1  0.73280000  0.14930000  0.84790000  1.0
  C  C82  1  0.74910000  0.23000000  0.81891000  1.0
  C  C83  1  0.77710000  0.33780000  0.83529000  1.0
  C  C84  1  0.81110000  0.41490000  0.80042000  1.0
  C  C85  1  0.70530000  0.03390000  0.82828000  1.0
  C  C86  1  0.57510000  0.97130000  0.84505000  1.0
  C  C87  1  0.55520000  0.86360000  0.82799000  1.0
  C  C88  1  0.66990000  0.81710000  0.79425000  1.0
  C  C89  1  0.79760000  0.88140000  0.77622000  1.0
  C  C90  1  0.81300000  0.98970000  0.79245000  1.0
  C  C91  1  0.66290000  0.69580000  0.77977000  1.0
  C  C92  1  0.73360000  0.80920000  0.46847000  1.0
  C  C93  1  0.72170000  0.69670000  0.44546000  1.0
  C  C94  1  0.61050000  0.62070000  0.46197000  1.0
  C  C95  1  0.60590000  0.51550000  0.44155000  1.0
  C  C96  1  0.70390000  0.48440000  0.40281000  1.0
  C  C97  1  0.80870000  0.56300000  0.38454000  1.0
  C  C98  1  0.82020000  0.66560000  0.40634000  1.0
  C  C99  1  0.71450000  0.36950000  0.38226000  1.0
  C  C100  1  0.73290000  0.28780000  0.41118000  1.0
  C  C101  1  0.75630000  0.18010000  0.39505000  1.0
  C  C102  1  0.76920000  0.10250000  0.43107000  1.0
  C  C103  1  0.76720000  0.14930000  0.34790000  1.0
  C  C104  1  0.75090000  0.23000000  0.31891000  1.0
  C  C105  1  0.72290000  0.33780000  0.33529000  1.0
  C  C106  1  0.68890000  0.41490000  0.30042000  1.0
  C  C107  1  0.79470000  0.03390000  0.32828000  1.0
  C  C108  1  0.92490000  0.97130000  0.34505000  1.0
  C  C109  1  0.94480000  0.86360000  0.32799000  1.0
  C  C110  1  0.83010000  0.81710000  0.29425000  1.0
  C  C111  1  0.70240000  0.88140000  0.27622000  1.0
  C  C112  1  0.68700000  0.98970000  0.29245000  1.0
  C  C113  1  0.83710000  0.69580000  0.27977000  1.0
  C  C114  1  0.23360000  0.19080000  0.03153000  1.0
  C  C115  1  0.22170000  0.30330000  0.05454000  1.0
  C  C116  1  0.11050000  0.37930000  0.03803000  1.0
  C  C117  1  0.10590000  0.48450000  0.05845000  1.0
  C  C118  1  0.20390000  0.51560000  0.09719000  1.0
  C  C119  1  0.30870000  0.43700000  0.11546000  1.0
  C  C120  1  0.32020000  0.33440000  0.09366000  1.0
  C  C121  1  0.21450000  0.63050000  0.11774000  1.0
  C  C122  1  0.23290000  0.71220000  0.08882000  1.0
  C  C123  1  0.25630000  0.81990000  0.10495000  1.0
  C  C124  1  0.26920000  0.89750000  0.06893000  1.0
  C  C125  1  0.26720000  0.85070000  0.15210000  1.0
  C  C126  1  0.25090000  0.77000000  0.18109000  1.0
  C  C127  1  0.22290000  0.66220000  0.16471000  1.0
  C  C128  1  0.18890000  0.58510000  0.19958000  1.0
  C  C129  1  0.29470000  0.96610000  0.17172000  1.0
  C  C130  1  0.42490000  0.02870000  0.15495000  1.0
  C  C131  1  0.44480000  0.13640000  0.17201000  1.0
  C  C132  1  0.33010000  0.18290000  0.20575000  1.0
  C  C133  1  0.20240000  0.11860000  0.22378000  1.0
  C  C134  1  0.18700000  0.01030000  0.20755000  1.0
  C  C135  1  0.33710000  0.30420000  0.22023000  1.0
  O  O136  1  0.40070000  0.15620000  0.50850000  1.0
  O  O137  1  0.12480000  0.13950000  0.53598000  1.0
  O  O138  1  0.36960000  0.94840000  0.56081000  1.0
  O  O139  1  0.08230000  0.89920000  0.54896000  1.0
  O  O140  1  0.20050000  0.58204000  0.73241000  1.0
  O  O141  1  0.45340000  0.53350000  0.69756000  1.0
  O  O142  1  0.02930000  0.35510000  0.70825000  1.0
  O  O143  1  0.29460000  0.34220000  0.74304000  1.0
  O  O144  1  0.90070000  0.84380000  0.99150000  1.0
  O  O145  1  0.62480000  0.86050000  0.96402000  1.0
  O  O146  1  0.86960000  0.05160000  0.93919000  1.0
  O  O147  1  0.58230000  0.10080000  0.95104000  1.0
  O  O148  1  0.70050000  0.41796000  0.76759000  1.0
  O  O149  1  0.95340000  0.46650000  0.80244000  1.0
  O  O150  1  0.52930000  0.64490000  0.79175000  1.0
  O  O151  1  0.79460000  0.65780000  0.75696000  1.0
  O  O152  1  0.59930000  0.84380000  0.49150000  1.0
  O  O153  1  0.87520000  0.86050000  0.46402000  1.0
  O  O154  1  0.63040000  0.05160000  0.43919000  1.0
  O  O155  1  0.91770000  0.10080000  0.45104000  1.0
  O  O156  1  0.79950000  0.41796000  0.26759000  1.0
  O  O157  1  0.54660000  0.46650000  0.30244000  1.0
  O  O158  1  0.97070000  0.64490000  0.29175000  1.0
  O  O159  1  0.70540000  0.65780000  0.25696000  1.0
  O  O160  1  0.09930000  0.15620000  0.00850000  1.0
  O  O161  1  0.37520000  0.13950000  0.03598000  1.0
  O  O162  1  0.13040000  0.94840000  0.06081000  1.0
  O  O163  1  0.41770000  0.89920000  0.04896000  1.0
  O  O164  1  0.29950000  0.58204000  0.23241000  1.0
  O  O165  1  0.04660000  0.53350000  0.19756000  1.0
  O  O166  1  0.47070000  0.35510000  0.20825000  1.0
  O  O167  1  0.20540000  0.34220000  0.24304000  1.0
