# generated using pymatgen
data_Zn3P3H15C18(NO2)5
_symmetry_space_group_name_H-M   'P 1'
_cell_length_a   9.14900000
_cell_length_b   11.20200000
_cell_length_c   14.62800000
_cell_angle_alpha   73.52600000
_cell_angle_beta   88.04500000
_cell_angle_gamma   71.28400000
_symmetry_Int_Tables_number   1
_chemical_formula_structural   Zn3P3H15C18(NO2)5
_chemical_formula_sum   'Zn6 P6 H30 C36 N10 O20'
_cell_volume   1358.94358549
_cell_formula_units_Z   2
loop_
 _symmetry_equiv_pos_site_id
 _symmetry_equiv_pos_as_xyz
  1  'x, y, z'
loop_
 _atom_site_type_symbol
 _atom_site_label
 _atom_site_symmetry_multiplicity
 _atom_site_fract_x
 _atom_site_fract_y
 _atom_site_fract_z
 _atom_site_occupancy
  Zn  Zn0  1  0.84960000  0.18320000  0.98636000  1.0
  Zn  Zn1  1  0.29060000  0.23640000  0.73990000  1.0
  Zn  Zn2  1  0.50550000  0.48730000  0.15234000  1.0
  Zn  Zn3  1  0.15040000  0.81680000  0.01364000  1.0
  Zn  Zn4  1  0.70940000  0.76360000  0.26010000  1.0
  Zn  Zn5  1  0.49450000  0.51270000  0.84766000  1.0
  P  P6  1  0.75010000  0.47920000  0.99700000  1.0
  P  P7  1  0.06580000  0.07960000  0.83640000  1.0
  P  P8  1  0.58880000  0.22750000  0.83570000  1.0
  P  P9  1  0.24990000  0.52080000  0.00300000  1.0
  P  P10  1  0.93420000  0.92040000  0.16360000  1.0
  P  P11  1  0.41120000  0.77250000  0.16430000  1.0
  H  H12  1  0.97370000  0.12280000  0.76130000  1.0
  H  H13  1  0.64780000  0.15460000  0.76660000  1.0
  H  H14  1  0.62230000  0.81780000  0.02950000  1.0
  H  H15  1  0.86650000  0.76680000  0.98720000  1.0
  H  H16  1  0.92360000  0.79760000  0.83130000  1.0
  H  H17  1  0.41950000  0.91670000  0.91510000  1.0
  H  H18  1  0.46900000  0.94020000  0.75270000  1.0
  H  H19  1  0.24700000  0.49100000  0.58780000  1.0
  H  H20  1  0.09770000  0.70820000  0.54960000  1.0
  H  H21  1  0.01890000  0.40550000  0.81180000  1.0
  H  H22  1  0.83960000  0.60980000  0.76880000  1.0
  H  H23  1  0.74940000  0.21780000  0.21850000  1.0
  H  H24  1  0.82860000  0.04770000  0.35200000  1.0
  H  H25  1  0.41990000  0.40510000  0.35260000  1.0
  H  H26  1  0.48760000  0.23930000  0.48410000  1.0
  H  H27  1  0.02630000  0.87720000  0.23870000  1.0
  H  H28  1  0.35220000  0.84540000  0.23340000  1.0
  H  H29  1  0.37770000  0.18220000  0.97050000  1.0
  H  H30  1  0.13350000  0.23320000  0.01280000  1.0
  H  H31  1  0.07640000  0.20240000  0.16870000  1.0
  H  H32  1  0.58050000  0.08330000  0.08490000  1.0
  H  H33  1  0.53100000  0.05980000  0.24730000  1.0
  H  H34  1  0.75300000  0.50900000  0.41220000  1.0
  H  H35  1  0.90230000  0.29180000  0.45040000  1.0
  H  H36  1  0.98110000  0.59450000  0.18820000  1.0
  H  H37  1  0.16040000  0.39020000  0.23120000  1.0
  H  H38  1  0.25060000  0.78220000  0.78150000  1.0
  H  H39  1  0.17140000  0.95230000  0.64800000  1.0
  H  H40  1  0.58010000  0.59490000  0.64740000  1.0
  H  H41  1  0.51240000  0.76070000  0.51590000  1.0
  C  C42  1  0.78700000  0.80260000  0.93960000  1.0
  C  C43  1  0.82100000  0.82070000  0.84700000  1.0
  C  C44  1  0.52100000  0.89030000  0.89700000  1.0
  C  C45  1  0.54950000  0.90740000  0.79950000  1.0
  C  C46  1  0.70420000  0.87310000  0.77590000  1.0
  C  C47  1  0.16700000  0.51700000  0.62620000  1.0
  C  C48  1  0.07500000  0.64700000  0.60110000  1.0
  C  C49  1  0.03000000  0.46600000  0.75570000  1.0
  C  C50  1  0.92500000  0.58990000  0.73270000  1.0
  C  C51  1  0.94700000  0.68760000  0.65320000  1.0
  C  C52  1  0.69700000  0.22290000  0.27360000  1.0
  C  C53  1  0.74400000  0.11990000  0.35390000  1.0
  C  C54  1  0.50400000  0.33100000  0.35280000  1.0
  C  C55  1  0.54500000  0.23300000  0.43080000  1.0
  C  C56  1  0.67200000  0.11790000  0.43770000  1.0
  C  C57  1  0.73710000  0.89760000  0.67340000  1.0
  C  C58  1  0.84400000  0.82670000  0.62440000  1.0
  C  C59  1  0.71900000  0.00870000  0.52510000  1.0
  C  C60  1  0.21300000  0.19740000  0.06040000  1.0
  C  C61  1  0.17900000  0.17930000  0.15300000  1.0
  C  C62  1  0.47900000  0.10970000  0.10300000  1.0
  C  C63  1  0.45050000  0.09260000  0.20050000  1.0
  C  C64  1  0.29580000  0.12690000  0.22410000  1.0
  C  C65  1  0.83300000  0.48300000  0.37380000  1.0
  C  C66  1  0.92500000  0.35300000  0.39890000  1.0
  C  C67  1  0.97000000  0.53400000  0.24430000  1.0
  C  C68  1  0.07500000  0.41010000  0.26730000  1.0
  C  C69  1  0.05300000  0.31240000  0.34680000  1.0
  C  C70  1  0.30300000  0.77710000  0.72640000  1.0
  C  C71  1  0.25600000  0.88010000  0.64610000  1.0
  C  C72  1  0.49600000  0.66900000  0.64720000  1.0
  C  C73  1  0.45500000  0.76700000  0.56920000  1.0
  C  C74  1  0.32800000  0.88210000  0.56230000  1.0
  C  C75  1  0.26290000  0.10240000  0.32660000  1.0
  C  C76  1  0.15600000  0.17330000  0.37560000  1.0
  C  C77  1  0.28100000  0.99130000  0.47490000  1.0
  N  N78  1  0.63840000  0.83610000  0.96350000  1.0
  N  N79  1  0.14640000  0.42650000  0.70310000  1.0
  N  N80  1  0.58200000  0.32860000  0.27110000  1.0
  N  N81  1  0.65660000  0.01280000  0.60990000  1.0
  N  N82  1  0.83330000  0.89770000  0.53210000  1.0
  N  N83  1  0.36160000  0.16390000  0.03650000  1.0
  N  N84  1  0.85360000  0.57350000  0.29690000  1.0
  N  N85  1  0.41800000  0.67140000  0.72890000  1.0
  N  N86  1  0.34340000  0.98720000  0.39010000  1.0
  N  N87  1  0.16670000  0.10230000  0.46790000  1.0
  O  O88  1  0.65930000  0.54090000  0.90560000  1.0
  O  O89  1  0.66900000  0.52500000  0.07690000  1.0
  O  O90  1  0.79300000  0.33000000  0.03600000  1.0
  O  O91  1  0.01430000  0.16780000  0.90050000  1.0
  O  O92  1  0.10220000  0.93330000  0.88880000  1.0
  O  O93  1  0.19260000  0.10620000  0.77460000  1.0
  O  O94  1  0.67460000  0.15990000  0.93110000  1.0
  O  O95  1  0.43100000  0.20750000  0.84830000  1.0
  O  O96  1  0.57760000  0.36910000  0.79290000  1.0
  O  O97  1  0.85300000  0.34800000  0.99600000  1.0
  O  O98  1  0.34070000  0.45910000  0.09440000  1.0
  O  O99  1  0.33100000  0.47500000  0.92310000  1.0
  O  O100  1  0.20700000  0.67000000  0.96400000  1.0
  O  O101  1  0.98570000  0.83220000  0.09950000  1.0
  O  O102  1  0.89780000  0.06670000  0.11120000  1.0
  O  O103  1  0.80740000  0.89380000  0.22540000  1.0
  O  O104  1  0.32540000  0.84010000  0.06890000  1.0
  O  O105  1  0.56900000  0.79250000  0.15170000  1.0
  O  O106  1  0.42240000  0.63090000  0.20710000  1.0
  O  O107  1  0.14700000  0.65200000  0.00400000  1.0
