# generated using pymatgen
data_Y3H6(C3O4)4
_symmetry_space_group_name_H-M   'P 1'
_cell_length_a   18.53530000
_cell_length_b   18.53530000
_cell_length_c   18.53530000
_cell_angle_alpha   90.00000000
_cell_angle_beta   90.00000000
_cell_angle_gamma   90.00000000
_symmetry_Int_Tables_number   1
_chemical_formula_structural   Y3H6(C3O4)4
_chemical_formula_sum   'Y24 H48 C96 O128'
_cell_volume   6367.93847698
_cell_formula_units_Z   8
loop_
 _symmetry_equiv_pos_site_id
 _symmetry_equiv_pos_as_xyz
  1  'x, y, z'
loop_
 _atom_site_type_symbol
 _atom_site_label
 _atom_site_symmetry_multiplicity
 _atom_site_fract_x
 _atom_site_fract_y
 _atom_site_fract_z
 _atom_site_occupancy
  Y  Y0  1  0.98683000  0.48770000  0.85358000  1.0
  Y  Y1  1  0.51317000  0.01230000  0.85358000  1.0
  Y  Y2  1  0.51317000  0.48770000  0.64642000  1.0
  Y  Y3  1  0.98683000  0.01230000  0.64642000  1.0
  Y  Y4  1  0.85358000  0.98683000  0.48770000  1.0
  Y  Y5  1  0.85358000  0.51317000  0.01230000  1.0
  Y  Y6  1  0.64642000  0.51317000  0.48770000  1.0
  Y  Y7  1  0.64642000  0.98683000  0.01230000  1.0
  Y  Y8  1  0.48770000  0.85358000  0.98683000  1.0
  Y  Y9  1  0.01230000  0.85358000  0.51317000  1.0
  Y  Y10  1  0.48770000  0.64642000  0.51317000  1.0
  Y  Y11  1  0.01230000  0.64642000  0.98683000  1.0
  Y  Y12  1  0.01317000  0.51230000  0.14642000  1.0
  Y  Y13  1  0.48683000  0.98770000  0.14642000  1.0
  Y  Y14  1  0.48683000  0.51230000  0.35358000  1.0
  Y  Y15  1  0.01317000  0.98770000  0.35358000  1.0
  Y  Y16  1  0.14642000  0.01317000  0.51230000  1.0
  Y  Y17  1  0.14642000  0.48683000  0.98770000  1.0
  Y  Y18  1  0.35358000  0.48683000  0.51230000  1.0
  Y  Y19  1  0.35358000  0.01317000  0.98770000  1.0
  Y  Y20  1  0.51230000  0.14642000  0.01317000  1.0
  Y  Y21  1  0.98770000  0.14642000  0.48683000  1.0
  Y  Y22  1  0.51230000  0.35358000  0.48683000  1.0
  Y  Y23  1  0.98770000  0.35358000  0.01317000  1.0
  H  H24  1  0.69760000  0.50140000  0.80290000  1.0
  H  H25  1  0.97390000  0.19910000  0.80380000  1.0
  H  H26  1  0.80240000  0.99860000  0.80290000  1.0
  H  H27  1  0.52610000  0.30090000  0.80380000  1.0
  H  H28  1  0.80240000  0.50140000  0.69710000  1.0
  H  H29  1  0.52610000  0.19910000  0.69620000  1.0
  H  H30  1  0.69760000  0.99860000  0.69710000  1.0
  H  H31  1  0.97390000  0.30090000  0.69620000  1.0
  H  H32  1  0.80290000  0.69760000  0.50140000  1.0
  H  H33  1  0.80380000  0.97390000  0.19910000  1.0
  H  H34  1  0.80290000  0.80240000  0.99860000  1.0
  H  H35  1  0.80380000  0.52610000  0.30090000  1.0
  H  H36  1  0.69710000  0.80240000  0.50140000  1.0
  H  H37  1  0.69620000  0.52610000  0.19910000  1.0
  H  H38  1  0.69710000  0.69760000  0.99860000  1.0
  H  H39  1  0.69620000  0.97390000  0.30090000  1.0
  H  H40  1  0.50140000  0.80290000  0.69760000  1.0
  H  H41  1  0.19910000  0.80380000  0.97390000  1.0
  H  H42  1  0.99860000  0.80290000  0.80240000  1.0
  H  H43  1  0.30090000  0.80380000  0.52610000  1.0
  H  H44  1  0.50140000  0.69710000  0.80240000  1.0
  H  H45  1  0.19910000  0.69620000  0.52610000  1.0
  H  H46  1  0.99860000  0.69710000  0.69760000  1.0
  H  H47  1  0.30090000  0.69620000  0.97390000  1.0
  H  H48  1  0.30240000  0.49860000  0.19710000  1.0
  H  H49  1  0.02610000  0.80090000  0.19620000  1.0
  H  H50  1  0.19760000  0.00140000  0.19710000  1.0
  H  H51  1  0.47390000  0.69910000  0.19620000  1.0
  H  H52  1  0.19760000  0.49860000  0.30290000  1.0
  H  H53  1  0.47390000  0.80090000  0.30380000  1.0
  H  H54  1  0.30240000  0.00140000  0.30290000  1.0
  H  H55  1  0.02610000  0.69910000  0.30380000  1.0
  H  H56  1  0.19710000  0.30240000  0.49860000  1.0
  H  H57  1  0.19620000  0.02610000  0.80090000  1.0
  H  H58  1  0.19710000  0.19760000  0.00140000  1.0
  H  H59  1  0.19620000  0.47390000  0.69910000  1.0
  H  H60  1  0.30290000  0.19760000  0.49860000  1.0
  H  H61  1  0.30380000  0.47390000  0.80090000  1.0
  H  H62  1  0.30290000  0.30240000  0.00140000  1.0
  H  H63  1  0.30380000  0.02610000  0.69910000  1.0
  H  H64  1  0.49860000  0.19710000  0.30240000  1.0
  H  H65  1  0.80090000  0.19620000  0.02610000  1.0
  H  H66  1  0.00140000  0.19710000  0.19760000  1.0
  H  H67  1  0.69910000  0.19620000  0.47390000  1.0
  H  H68  1  0.49860000  0.30290000  0.19760000  1.0
  H  H69  1  0.80090000  0.30380000  0.47390000  1.0
  H  H70  1  0.00140000  0.30290000  0.30240000  1.0
  H  H71  1  0.69910000  0.30380000  0.02610000  1.0
  C  C72  1  0.97660000  0.30900000  0.83800000  1.0
  C  C73  1  0.74460000  0.50140000  0.78550000  1.0
  C  C74  1  0.97500000  0.24570000  0.78530000  1.0
  C  C75  1  0.80620000  0.50130000  0.83870000  1.0
  C  C76  1  0.52340000  0.19100000  0.83800000  1.0
  C  C77  1  0.75540000  0.99860000  0.78550000  1.0
  C  C78  1  0.52500000  0.25430000  0.78530000  1.0
  C  C79  1  0.69380000  0.99870000  0.83870000  1.0
  C  C80  1  0.52340000  0.30900000  0.66200000  1.0
  C  C81  1  0.75540000  0.50140000  0.71450000  1.0
  C  C82  1  0.52500000  0.24570000  0.71470000  1.0
  C  C83  1  0.69380000  0.50130000  0.66130000  1.0
  C  C84  1  0.97660000  0.19100000  0.66200000  1.0
  C  C85  1  0.74460000  0.99860000  0.71450000  1.0
  C  C86  1  0.97500000  0.25430000  0.71470000  1.0
  C  C87  1  0.80620000  0.99870000  0.66130000  1.0
  C  C88  1  0.83800000  0.97660000  0.30900000  1.0
  C  C89  1  0.78550000  0.74460000  0.50140000  1.0
  C  C90  1  0.78530000  0.97500000  0.24570000  1.0
  C  C91  1  0.83870000  0.80620000  0.50130000  1.0
  C  C92  1  0.83800000  0.52340000  0.19100000  1.0
  C  C93  1  0.78550000  0.75540000  0.99860000  1.0
  C  C94  1  0.78530000  0.52500000  0.25430000  1.0
  C  C95  1  0.83870000  0.69380000  0.99870000  1.0
  C  C96  1  0.66200000  0.52340000  0.30900000  1.0
  C  C97  1  0.71450000  0.75540000  0.50140000  1.0
  C  C98  1  0.71470000  0.52500000  0.24570000  1.0
  C  C99  1  0.66130000  0.69380000  0.50130000  1.0
  C  C100  1  0.66200000  0.97660000  0.19100000  1.0
  C  C101  1  0.71450000  0.74460000  0.99860000  1.0
  C  C102  1  0.71470000  0.97500000  0.25430000  1.0
  C  C103  1  0.66130000  0.80620000  0.99870000  1.0
  C  C104  1  0.30900000  0.83800000  0.97660000  1.0
  C  C105  1  0.50140000  0.78550000  0.74460000  1.0
  C  C106  1  0.24570000  0.78530000  0.97500000  1.0
  C  C107  1  0.50130000  0.83870000  0.80620000  1.0
  C  C108  1  0.19100000  0.83800000  0.52340000  1.0
  C  C109  1  0.99860000  0.78550000  0.75540000  1.0
  C  C110  1  0.25430000  0.78530000  0.52500000  1.0
  C  C111  1  0.99870000  0.83870000  0.69380000  1.0
  C  C112  1  0.30900000  0.66200000  0.52340000  1.0
  C  C113  1  0.50140000  0.71450000  0.75540000  1.0
  C  C114  1  0.24570000  0.71470000  0.52500000  1.0
  C  C115  1  0.50130000  0.66130000  0.69380000  1.0
  C  C116  1  0.19100000  0.66200000  0.97660000  1.0
  C  C117  1  0.99860000  0.71450000  0.74460000  1.0
  C  C118  1  0.25430000  0.71470000  0.97500000  1.0
  C  C119  1  0.99870000  0.66130000  0.80620000  1.0
  C  C120  1  0.02340000  0.69100000  0.16200000  1.0
  C  C121  1  0.25540000  0.49860000  0.21450000  1.0
  C  C122  1  0.02500000  0.75430000  0.21470000  1.0
  C  C123  1  0.19380000  0.49870000  0.16130000  1.0
  C  C124  1  0.47660000  0.80900000  0.16200000  1.0
  C  C125  1  0.24460000  0.00140000  0.21450000  1.0
  C  C126  1  0.47500000  0.74570000  0.21470000  1.0
  C  C127  1  0.30620000  0.00130000  0.16130000  1.0
  C  C128  1  0.47660000  0.69100000  0.33800000  1.0
  C  C129  1  0.24460000  0.49860000  0.28550000  1.0
  C  C130  1  0.47500000  0.75430000  0.28530000  1.0
  C  C131  1  0.30620000  0.49870000  0.33870000  1.0
  C  C132  1  0.02340000  0.80900000  0.33800000  1.0
  C  C133  1  0.25540000  0.00140000  0.28550000  1.0
  C  C134  1  0.02500000  0.74570000  0.28530000  1.0
  C  C135  1  0.19380000  0.00130000  0.33870000  1.0
  C  C136  1  0.16200000  0.02340000  0.69100000  1.0
  C  C137  1  0.21450000  0.25540000  0.49860000  1.0
  C  C138  1  0.21470000  0.02500000  0.75430000  1.0
  C  C139  1  0.16130000  0.19380000  0.49870000  1.0
  C  C140  1  0.16200000  0.47660000  0.80900000  1.0
  C  C141  1  0.21450000  0.24460000  0.00140000  1.0
  C  C142  1  0.21470000  0.47500000  0.74570000  1.0
  C  C143  1  0.16130000  0.30620000  0.00130000  1.0
  C  C144  1  0.33800000  0.47660000  0.69100000  1.0
  C  C145  1  0.28550000  0.24460000  0.49860000  1.0
  C  C146  1  0.28530000  0.47500000  0.75430000  1.0
  C  C147  1  0.33870000  0.30620000  0.49870000  1.0
  C  C148  1  0.33800000  0.02340000  0.80900000  1.0
  C  C149  1  0.28550000  0.25540000  0.00140000  1.0
  C  C150  1  0.28530000  0.02500000  0.74570000  1.0
  C  C151  1  0.33870000  0.19380000  0.00130000  1.0
  C  C152  1  0.69100000  0.16200000  0.02340000  1.0
  C  C153  1  0.49860000  0.21450000  0.25540000  1.0
  C  C154  1  0.75430000  0.21470000  0.02500000  1.0
  C  C155  1  0.49870000  0.16130000  0.19380000  1.0
  C  C156  1  0.80900000  0.16200000  0.47660000  1.0
  C  C157  1  0.00140000  0.21450000  0.24460000  1.0
  C  C158  1  0.74570000  0.21470000  0.47500000  1.0
  C  C159  1  0.00130000  0.16130000  0.30620000  1.0
  C  C160  1  0.69100000  0.33800000  0.47660000  1.0
  C  C161  1  0.49860000  0.28550000  0.24460000  1.0
  C  C162  1  0.75430000  0.28530000  0.47500000  1.0
  C  C163  1  0.49870000  0.33870000  0.30620000  1.0
  C  C164  1  0.80900000  0.33800000  0.02340000  1.0
  C  C165  1  0.00140000  0.28550000  0.25540000  1.0
  C  C166  1  0.74570000  0.28530000  0.02500000  1.0
  C  C167  1  0.00130000  0.33870000  0.19380000  1.0
  O  O168  1  0.06740000  0.55550000  0.92040000  1.0
  O  O169  1  0.97610000  0.29110000  0.90560000  1.0
  O  O170  1  0.78970000  0.51000000  0.90440000  1.0
  O  O171  1  0.86910000  0.49320000  0.81140000  1.0
  O  O172  1  0.97580000  0.37000000  0.81120000  1.0
  O  O173  1  0.43260000  0.94450000  0.92040000  1.0
  O  O174  1  0.52390000  0.20890000  0.90560000  1.0
  O  O175  1  0.71030000  0.99000000  0.90440000  1.0
  O  O176  1  0.63090000  0.00680000  0.81140000  1.0
  O  O177  1  0.52420000  0.13000000  0.81120000  1.0
  O  O178  1  0.43260000  0.55550000  0.57960000  1.0
  O  O179  1  0.52390000  0.29110000  0.59440000  1.0
  O  O180  1  0.71030000  0.51000000  0.59560000  1.0
  O  O181  1  0.63090000  0.49320000  0.68860000  1.0
  O  O182  1  0.52420000  0.37000000  0.68880000  1.0
  O  O183  1  0.06740000  0.94450000  0.57960000  1.0
  O  O184  1  0.97610000  0.20890000  0.59440000  1.0
  O  O185  1  0.78970000  0.99000000  0.59560000  1.0
  O  O186  1  0.86910000  0.00680000  0.68860000  1.0
  O  O187  1  0.97580000  0.13000000  0.68880000  1.0
  O  O188  1  0.92040000  0.06740000  0.55550000  1.0
  O  O189  1  0.90560000  0.97610000  0.29110000  1.0
  O  O190  1  0.90440000  0.78970000  0.51000000  1.0
  O  O191  1  0.81140000  0.86910000  0.49320000  1.0
  O  O192  1  0.81120000  0.97580000  0.37000000  1.0
  O  O193  1  0.92040000  0.43260000  0.94450000  1.0
  O  O194  1  0.90560000  0.52390000  0.20890000  1.0
  O  O195  1  0.90440000  0.71030000  0.99000000  1.0
  O  O196  1  0.81140000  0.63090000  0.00680000  1.0
  O  O197  1  0.81120000  0.52420000  0.13000000  1.0
  O  O198  1  0.57960000  0.43260000  0.55550000  1.0
  O  O199  1  0.59440000  0.52390000  0.29110000  1.0
  O  O200  1  0.59560000  0.71030000  0.51000000  1.0
  O  O201  1  0.68860000  0.63090000  0.49320000  1.0
  O  O202  1  0.68880000  0.52420000  0.37000000  1.0
  O  O203  1  0.57960000  0.06740000  0.94450000  1.0
  O  O204  1  0.59440000  0.97610000  0.20890000  1.0
  O  O205  1  0.59560000  0.78970000  0.99000000  1.0
  O  O206  1  0.68860000  0.86910000  0.00680000  1.0
  O  O207  1  0.68880000  0.97580000  0.13000000  1.0
  O  O208  1  0.55550000  0.92040000  0.06740000  1.0
  O  O209  1  0.29110000  0.90560000  0.97610000  1.0
  O  O210  1  0.51000000  0.90440000  0.78970000  1.0
  O  O211  1  0.49320000  0.81140000  0.86910000  1.0
  O  O212  1  0.37000000  0.81120000  0.97580000  1.0
  O  O213  1  0.94450000  0.92040000  0.43260000  1.0
  O  O214  1  0.20890000  0.90560000  0.52390000  1.0
  O  O215  1  0.99000000  0.90440000  0.71030000  1.0
  O  O216  1  0.00680000  0.81140000  0.63090000  1.0
  O  O217  1  0.13000000  0.81120000  0.52420000  1.0
  O  O218  1  0.55550000  0.57960000  0.43260000  1.0
  O  O219  1  0.29110000  0.59440000  0.52390000  1.0
  O  O220  1  0.51000000  0.59560000  0.71030000  1.0
  O  O221  1  0.49320000  0.68860000  0.63090000  1.0
  O  O222  1  0.37000000  0.68880000  0.52420000  1.0
  O  O223  1  0.94450000  0.57960000  0.06740000  1.0
  O  O224  1  0.20890000  0.59440000  0.97610000  1.0
  O  O225  1  0.99000000  0.59560000  0.78970000  1.0
  O  O226  1  0.00680000  0.68860000  0.86910000  1.0
  O  O227  1  0.13000000  0.68880000  0.97580000  1.0
  O  O228  1  0.93260000  0.44450000  0.07960000  1.0
  O  O229  1  0.02390000  0.70890000  0.09440000  1.0
  O  O230  1  0.21030000  0.49000000  0.09560000  1.0
  O  O231  1  0.13090000  0.50680000  0.18860000  1.0
  O  O232  1  0.02420000  0.63000000  0.18880000  1.0
  O  O233  1  0.56740000  0.05550000  0.07960000  1.0
  O  O234  1  0.47610000  0.79110000  0.09440000  1.0
  O  O235  1  0.28970000  0.01000000  0.09560000  1.0
  O  O236  1  0.36910000  0.99320000  0.18860000  1.0
  O  O237  1  0.47580000  0.87000000  0.18880000  1.0
  O  O238  1  0.56740000  0.44450000  0.42040000  1.0
  O  O239  1  0.47610000  0.70890000  0.40560000  1.0
  O  O240  1  0.28970000  0.49000000  0.40440000  1.0
  O  O241  1  0.36910000  0.50680000  0.31140000  1.0
  O  O242  1  0.47580000  0.63000000  0.31120000  1.0
  O  O243  1  0.93260000  0.05550000  0.42040000  1.0
  O  O244  1  0.02390000  0.79110000  0.40560000  1.0
  O  O245  1  0.21030000  0.01000000  0.40440000  1.0
  O  O246  1  0.13090000  0.99320000  0.31140000  1.0
  O  O247  1  0.02420000  0.87000000  0.31120000  1.0
  O  O248  1  0.07960000  0.93260000  0.44450000  1.0
  O  O249  1  0.09440000  0.02390000  0.70890000  1.0
  O  O250  1  0.09560000  0.21030000  0.49000000  1.0
  O  O251  1  0.18860000  0.13090000  0.50680000  1.0
  O  O252  1  0.18880000  0.02420000  0.63000000  1.0
  O  O253  1  0.07960000  0.56740000  0.05550000  1.0
  O  O254  1  0.09440000  0.47610000  0.79110000  1.0
  O  O255  1  0.09560000  0.28970000  0.01000000  1.0
  O  O256  1  0.18860000  0.36910000  0.99320000  1.0
  O  O257  1  0.18880000  0.47580000  0.87000000  1.0
  O  O258  1  0.42040000  0.56740000  0.44450000  1.0
  O  O259  1  0.40560000  0.47610000  0.70890000  1.0
  O  O260  1  0.40440000  0.28970000  0.49000000  1.0
  O  O261  1  0.31140000  0.36910000  0.50680000  1.0
  O  O262  1  0.31120000  0.47580000  0.63000000  1.0
  O  O263  1  0.42040000  0.93260000  0.05550000  1.0
  O  O264  1  0.40560000  0.02390000  0.79110000  1.0
  O  O265  1  0.40440000  0.21030000  0.01000000  1.0
  O  O266  1  0.31140000  0.13090000  0.99320000  1.0
  O  O267  1  0.31120000  0.02420000  0.87000000  1.0
  O  O268  1  0.44450000  0.07960000  0.93260000  1.0
  O  O269  1  0.70890000  0.09440000  0.02390000  1.0
  O  O270  1  0.49000000  0.09560000  0.21030000  1.0
  O  O271  1  0.50680000  0.18860000  0.13090000  1.0
  O  O272  1  0.63000000  0.18880000  0.02420000  1.0
  O  O273  1  0.05550000  0.07960000  0.56740000  1.0
  O  O274  1  0.79110000  0.09440000  0.47610000  1.0
  O  O275  1  0.01000000  0.09560000  0.28970000  1.0
  O  O276  1  0.99320000  0.18860000  0.36910000  1.0
  O  O277  1  0.87000000  0.18880000  0.47580000  1.0
  O  O278  1  0.44450000  0.42040000  0.56740000  1.0
  O  O279  1  0.70890000  0.40560000  0.47610000  1.0
  O  O280  1  0.49000000  0.40440000  0.28970000  1.0
  O  O281  1  0.50680000  0.31140000  0.36910000  1.0
  O  O282  1  0.63000000  0.31120000  0.47580000  1.0
  O  O283  1  0.05550000  0.42040000  0.93260000  1.0
  O  O284  1  0.79110000  0.40560000  0.02390000  1.0
  O  O285  1  0.01000000  0.40440000  0.21030000  1.0
  O  O286  1  0.99320000  0.31140000  0.13090000  1.0
  O  O287  1  0.87000000  0.31120000  0.02420000  1.0
  O  O288  1  0.93290000  0.56710000  0.93290000  1.0
  O  O289  1  0.56710000  0.93290000  0.93290000  1.0
  O  O290  1  0.56710000  0.56710000  0.56710000  1.0
  O  O291  1  0.93290000  0.93290000  0.56710000  1.0
  O  O292  1  0.06710000  0.43290000  0.06710000  1.0
  O  O293  1  0.43290000  0.06710000  0.06710000  1.0
  O  O294  1  0.43290000  0.43290000  0.43290000  1.0
  O  O295  1  0.06710000  0.06710000  0.43290000  1.0
