# generated using pymatgen
data_AgH16(C7N)4
_symmetry_space_group_name_H-M   'P 1'
_cell_length_a   24.55200000
_cell_length_b   24.55200000
_cell_length_c   4.84500000
_cell_angle_alpha   90.00000000
_cell_angle_beta   90.00000000
_cell_angle_gamma   90.00000000
_symmetry_Int_Tables_number   1
_chemical_formula_structural   AgH16(C7N)4
_chemical_formula_sum   'Ag4 H64 C112 N16'
_cell_volume   2920.56941088
_cell_formula_units_Z   4
loop_
 _symmetry_equiv_pos_site_id
 _symmetry_equiv_pos_as_xyz
  1  'x, y, z'
loop_
 _atom_site_type_symbol
 _atom_site_label
 _atom_site_symmetry_multiplicity
 _atom_site_fract_x
 _atom_site_fract_y
 _atom_site_fract_z
 _atom_site_occupancy
  Ag  Ag0  1  0.00000000  0.50000000  0.75000000  1.0
  Ag  Ag1  1  0.50000000  0.00000000  0.25000000  1.0
  Ag  Ag2  1  0.50000000  0.50000000  0.00000000  1.0
  Ag  Ag3  1  0.00000000  0.00000000  0.50000000  1.0
  H  H4  1  0.88190000  0.64910000  0.08420000  1.0
  H  H5  1  0.88020000  0.71480000  0.75700000  1.0
  H  H6  1  0.04410000  0.72200000  0.76260000  1.0
  H  H7  1  0.04250000  0.65110000  0.09660000  1.0
  H  H8  1  0.38190000  0.14910000  0.58420000  1.0
  H  H9  1  0.38020000  0.21480000  0.25700000  1.0
  H  H10  1  0.54410000  0.22200000  0.26260000  1.0
  H  H11  1  0.54250000  0.15110000  0.59660000  1.0
  H  H12  1  0.11810000  0.35090000  0.08420000  1.0
  H  H13  1  0.11980000  0.28520000  0.75700000  1.0
  H  H14  1  0.95590000  0.27800000  0.76260000  1.0
  H  H15  1  0.95750000  0.34890000  0.09660000  1.0
  H  H16  1  0.61810000  0.85090000  0.58420000  1.0
  H  H17  1  0.61980000  0.78520000  0.25700000  1.0
  H  H18  1  0.45590000  0.77800000  0.26260000  1.0
  H  H19  1  0.45750000  0.84890000  0.59660000  1.0
  H  H20  1  0.64910000  0.11810000  0.91580000  1.0
  H  H21  1  0.71480000  0.11980000  0.24300000  1.0
  H  H22  1  0.72200000  0.95590000  0.23740000  1.0
  H  H23  1  0.65110000  0.95750000  0.90340000  1.0
  H  H24  1  0.14910000  0.61810000  0.41580000  1.0
  H  H25  1  0.21480000  0.61980000  0.74300000  1.0
  H  H26  1  0.22200000  0.45590000  0.73740000  1.0
  H  H27  1  0.15110000  0.45750000  0.40340000  1.0
  H  H28  1  0.35090000  0.88190000  0.91580000  1.0
  H  H29  1  0.28520000  0.88020000  0.24300000  1.0
  H  H30  1  0.27800000  0.04410000  0.23740000  1.0
  H  H31  1  0.34890000  0.04250000  0.90340000  1.0
  H  H32  1  0.85090000  0.38190000  0.41580000  1.0
  H  H33  1  0.78520000  0.38020000  0.74300000  1.0
  H  H34  1  0.77800000  0.54410000  0.73740000  1.0
  H  H35  1  0.84890000  0.54250000  0.40340000  1.0
  H  H36  1  0.61810000  0.64910000  0.66580000  1.0
  H  H37  1  0.61980000  0.71480000  0.99300000  1.0
  H  H38  1  0.45590000  0.72200000  0.98740000  1.0
  H  H39  1  0.45750000  0.65110000  0.65340000  1.0
  H  H40  1  0.11810000  0.14910000  0.16580000  1.0
  H  H41  1  0.11980000  0.21480000  0.49300000  1.0
  H  H42  1  0.95590000  0.22200000  0.48740000  1.0
  H  H43  1  0.95750000  0.15110000  0.15340000  1.0
  H  H44  1  0.38190000  0.35090000  0.66580000  1.0
  H  H45  1  0.38020000  0.28520000  0.99300000  1.0
  H  H46  1  0.54410000  0.27800000  0.98740000  1.0
  H  H47  1  0.54250000  0.34890000  0.65340000  1.0
  H  H48  1  0.88190000  0.85090000  0.16580000  1.0
  H  H49  1  0.88020000  0.78520000  0.49300000  1.0
  H  H50  1  0.04410000  0.77800000  0.48740000  1.0
  H  H51  1  0.04250000  0.84890000  0.15340000  1.0
  H  H52  1  0.85090000  0.11810000  0.83420000  1.0
  H  H53  1  0.78520000  0.11980000  0.50700000  1.0
  H  H54  1  0.77800000  0.95590000  0.51260000  1.0
  H  H55  1  0.84890000  0.95750000  0.84660000  1.0
  H  H56  1  0.35090000  0.61810000  0.33420000  1.0
  H  H57  1  0.28520000  0.61980000  0.00700000  1.0
  H  H58  1  0.27800000  0.45590000  0.01260000  1.0
  H  H59  1  0.34890000  0.45750000  0.34660000  1.0
  H  H60  1  0.14910000  0.88190000  0.83420000  1.0
  H  H61  1  0.21480000  0.88020000  0.50700000  1.0
  H  H62  1  0.22200000  0.04410000  0.51260000  1.0
  H  H63  1  0.15110000  0.04250000  0.84660000  1.0
  H  H64  1  0.64910000  0.38190000  0.33420000  1.0
  H  H65  1  0.71480000  0.38020000  0.00700000  1.0
  H  H66  1  0.72200000  0.54410000  0.01260000  1.0
  H  H67  1  0.65110000  0.54250000  0.34660000  1.0
  C  C68  1  0.96240000  0.64210000  0.11840000  1.0
  C  C69  1  0.91470000  0.66290000  0.01840000  1.0
  C  C70  1  0.91370000  0.70330000  0.82490000  1.0
  C  C71  1  0.96120000  0.72800000  0.72470000  1.0
  C  C72  1  0.01110000  0.70780000  0.82460000  1.0
  C  C73  1  0.00970000  0.66430000  0.02690000  1.0
  C  C74  1  0.96560000  0.60230000  0.31790000  1.0
  C  C75  1  0.46240000  0.14210000  0.61840000  1.0
  C  C76  1  0.41470000  0.16290000  0.51840000  1.0
  C  C77  1  0.41370000  0.20330000  0.32490000  1.0
  C  C78  1  0.46120000  0.22800000  0.22470000  1.0
  C  C79  1  0.51110000  0.20780000  0.32460000  1.0
  C  C80  1  0.50970000  0.16430000  0.52690000  1.0
  C  C81  1  0.46560000  0.10230000  0.81790000  1.0
  C  C82  1  0.03760000  0.35790000  0.11840000  1.0
  C  C83  1  0.08530000  0.33710000  0.01840000  1.0
  C  C84  1  0.08630000  0.29670000  0.82490000  1.0
  C  C85  1  0.03880000  0.27200000  0.72470000  1.0
  C  C86  1  0.98890000  0.29220000  0.82460000  1.0
  C  C87  1  0.99030000  0.33570000  0.02690000  1.0
  C  C88  1  0.03440000  0.39770000  0.31790000  1.0
  C  C89  1  0.53760000  0.85790000  0.61840000  1.0
  C  C90  1  0.58530000  0.83710000  0.51840000  1.0
  C  C91  1  0.58630000  0.79670000  0.32490000  1.0
  C  C92  1  0.53880000  0.77200000  0.22470000  1.0
  C  C93  1  0.48890000  0.79220000  0.32460000  1.0
  C  C94  1  0.49030000  0.83570000  0.52690000  1.0
  C  C95  1  0.53440000  0.89770000  0.81790000  1.0
  C  C96  1  0.64210000  0.03760000  0.88160000  1.0
  C  C97  1  0.66290000  0.08530000  0.98160000  1.0
  C  C98  1  0.70330000  0.08630000  0.17510000  1.0
  C  C99  1  0.72800000  0.03880000  0.27530000  1.0
  C  C100  1  0.70780000  0.98890000  0.17540000  1.0
  C  C101  1  0.66430000  0.99030000  0.97310000  1.0
  C  C102  1  0.60230000  0.03440000  0.68210000  1.0
  C  C103  1  0.14210000  0.53760000  0.38160000  1.0
  C  C104  1  0.16290000  0.58530000  0.48160000  1.0
  C  C105  1  0.20330000  0.58630000  0.67510000  1.0
  C  C106  1  0.22800000  0.53880000  0.77530000  1.0
  C  C107  1  0.20780000  0.48890000  0.67540000  1.0
  C  C108  1  0.16430000  0.49030000  0.47310000  1.0
  C  C109  1  0.10230000  0.53440000  0.18210000  1.0
  C  C110  1  0.35790000  0.96240000  0.88160000  1.0
  C  C111  1  0.33710000  0.91470000  0.98160000  1.0
  C  C112  1  0.29670000  0.91370000  0.17510000  1.0
  C  C113  1  0.27200000  0.96120000  0.27530000  1.0
  C  C114  1  0.29220000  0.01110000  0.17540000  1.0
  C  C115  1  0.33570000  0.00970000  0.97310000  1.0
  C  C116  1  0.39770000  0.96560000  0.68210000  1.0
  C  C117  1  0.85790000  0.46240000  0.38160000  1.0
  C  C118  1  0.83710000  0.41470000  0.48160000  1.0
  C  C119  1  0.79670000  0.41370000  0.67510000  1.0
  C  C120  1  0.77200000  0.46120000  0.77530000  1.0
  C  C121  1  0.79220000  0.51110000  0.67540000  1.0
  C  C122  1  0.83570000  0.50970000  0.47310000  1.0
  C  C123  1  0.89770000  0.46560000  0.18210000  1.0
  C  C124  1  0.53760000  0.64210000  0.63160000  1.0
  C  C125  1  0.58530000  0.66290000  0.73160000  1.0
  C  C126  1  0.58630000  0.70330000  0.92510000  1.0
  C  C127  1  0.53880000  0.72800000  0.02530000  1.0
  C  C128  1  0.48890000  0.70780000  0.92540000  1.0
  C  C129  1  0.49030000  0.66430000  0.72310000  1.0
  C  C130  1  0.53440000  0.60230000  0.43210000  1.0
  C  C131  1  0.03760000  0.14210000  0.13160000  1.0
  C  C132  1  0.08530000  0.16290000  0.23160000  1.0
  C  C133  1  0.08630000  0.20330000  0.42510000  1.0
  C  C134  1  0.03880000  0.22800000  0.52530000  1.0
  C  C135  1  0.98890000  0.20780000  0.42540000  1.0
  C  C136  1  0.99030000  0.16430000  0.22310000  1.0
  C  C137  1  0.03440000  0.10230000  0.93210000  1.0
  C  C138  1  0.46240000  0.35790000  0.63160000  1.0
  C  C139  1  0.41470000  0.33710000  0.73160000  1.0
  C  C140  1  0.41370000  0.29670000  0.92510000  1.0
  C  C141  1  0.46120000  0.27200000  0.02530000  1.0
  C  C142  1  0.51110000  0.29220000  0.92540000  1.0
  C  C143  1  0.50970000  0.33570000  0.72310000  1.0
  C  C144  1  0.46560000  0.39770000  0.43210000  1.0
  C  C145  1  0.96240000  0.85790000  0.13160000  1.0
  C  C146  1  0.91470000  0.83710000  0.23160000  1.0
  C  C147  1  0.91370000  0.79670000  0.42510000  1.0
  C  C148  1  0.96120000  0.77200000  0.52530000  1.0
  C  C149  1  0.01110000  0.79220000  0.42540000  1.0
  C  C150  1  0.00970000  0.83570000  0.22310000  1.0
  C  C151  1  0.96560000  0.89770000  0.93210000  1.0
  C  C152  1  0.85790000  0.03760000  0.86840000  1.0
  C  C153  1  0.83710000  0.08530000  0.76840000  1.0
  C  C154  1  0.79670000  0.08630000  0.57490000  1.0
  C  C155  1  0.77200000  0.03880000  0.47470000  1.0
  C  C156  1  0.79220000  0.98890000  0.57460000  1.0
  C  C157  1  0.83570000  0.99030000  0.77690000  1.0
  C  C158  1  0.89770000  0.03440000  0.06790000  1.0
  C  C159  1  0.35790000  0.53760000  0.36840000  1.0
  C  C160  1  0.33710000  0.58530000  0.26840000  1.0
  C  C161  1  0.29670000  0.58630000  0.07490000  1.0
  C  C162  1  0.27200000  0.53880000  0.97470000  1.0
  C  C163  1  0.29220000  0.48890000  0.07460000  1.0
  C  C164  1  0.33570000  0.49030000  0.27690000  1.0
  C  C165  1  0.39770000  0.53440000  0.56790000  1.0
  C  C166  1  0.14210000  0.96240000  0.86840000  1.0
  C  C167  1  0.16290000  0.91470000  0.76840000  1.0
  C  C168  1  0.20330000  0.91370000  0.57490000  1.0
  C  C169  1  0.22800000  0.96120000  0.47470000  1.0
  C  C170  1  0.20780000  0.01110000  0.57460000  1.0
  C  C171  1  0.16430000  0.00970000  0.77690000  1.0
  C  C172  1  0.10230000  0.96560000  0.06790000  1.0
  C  C173  1  0.64210000  0.46240000  0.36840000  1.0
  C  C174  1  0.66290000  0.41470000  0.26840000  1.0
  C  C175  1  0.70330000  0.41370000  0.07490000  1.0
  C  C176  1  0.72800000  0.46120000  0.97470000  1.0
  C  C177  1  0.70780000  0.51110000  0.07460000  1.0
  C  C178  1  0.66430000  0.50970000  0.27690000  1.0
  C  C179  1  0.60230000  0.46560000  0.56790000  1.0
  N  N180  1  0.96820000  0.56920000  0.48260000  1.0
  N  N181  1  0.46820000  0.06920000  0.98260000  1.0
  N  N182  1  0.03180000  0.43080000  0.48260000  1.0
  N  N183  1  0.53180000  0.93080000  0.98260000  1.0
  N  N184  1  0.56920000  0.03180000  0.51740000  1.0
  N  N185  1  0.06920000  0.53180000  0.01740000  1.0
  N  N186  1  0.43080000  0.96820000  0.51740000  1.0
  N  N187  1  0.93080000  0.46820000  0.01740000  1.0
  N  N188  1  0.53180000  0.56920000  0.26740000  1.0
  N  N189  1  0.03180000  0.06920000  0.76740000  1.0
  N  N190  1  0.46820000  0.43080000  0.26740000  1.0
  N  N191  1  0.96820000  0.93080000  0.76740000  1.0
  N  N192  1  0.93080000  0.03180000  0.23260000  1.0
  N  N193  1  0.43080000  0.53180000  0.73260000  1.0
  N  N194  1  0.06920000  0.96820000  0.23260000  1.0
  N  N195  1  0.56920000  0.46820000  0.73260000  1.0
