# generated using pymatgen
data_Tb3H19C43(NO9)2
_symmetry_space_group_name_H-M   'P 1'
_cell_length_a   14.23400000
_cell_length_b   14.23400000
_cell_length_c   63.76000000
_cell_angle_alpha   90.00000000
_cell_angle_beta   90.00000000
_cell_angle_gamma   90.00000000
_symmetry_Int_Tables_number   1
_chemical_formula_structural   Tb3H19C43(NO9)2
_chemical_formula_sum   'Tb24 H152 C344 N16 O144'
_cell_volume   12918.20676256
_cell_formula_units_Z   8
loop_
 _symmetry_equiv_pos_site_id
 _symmetry_equiv_pos_as_xyz
  1  'x, y, z'
loop_
 _atom_site_type_symbol
 _atom_site_label
 _atom_site_symmetry_multiplicity
 _atom_site_fract_x
 _atom_site_fract_y
 _atom_site_fract_z
 _atom_site_occupancy
  Tb  Tb0  1  0.22408000  0.98323000  0.43820000  1.0
  Tb  Tb1  1  0.72408000  0.48323000  0.93820000  1.0
  Tb  Tb2  1  0.77592000  0.01677000  0.43820000  1.0
  Tb  Tb3  1  0.27592000  0.51677000  0.93820000  1.0
  Tb  Tb4  1  0.98323000  0.77592000  0.56180000  1.0
  Tb  Tb5  1  0.48323000  0.27592000  0.06180000  1.0
  Tb  Tb6  1  0.01677000  0.22408000  0.56180000  1.0
  Tb  Tb7  1  0.51677000  0.72408000  0.06180000  1.0
  Tb  Tb8  1  0.27592000  0.98323000  0.31180000  1.0
  Tb  Tb9  1  0.77592000  0.48323000  0.81180000  1.0
  Tb  Tb10  1  0.72408000  0.01677000  0.31180000  1.0
  Tb  Tb11  1  0.22408000  0.51677000  0.81180000  1.0
  Tb  Tb12  1  0.51677000  0.77592000  0.18820000  1.0
  Tb  Tb13  1  0.01677000  0.27592000  0.68820000  1.0
  Tb  Tb14  1  0.48323000  0.22408000  0.18820000  1.0
  Tb  Tb15  1  0.98323000  0.72408000  0.68820000  1.0
  Tb  Tb16  1  0.50000000  0.00000000  0.45941000  1.0
  Tb  Tb17  1  0.00000000  0.50000000  0.95941000  1.0
  Tb  Tb18  1  0.00000000  0.50000000  0.54059000  1.0
  Tb  Tb19  1  0.50000000  0.00000000  0.04059000  1.0
  Tb  Tb20  1  0.00000000  0.00000000  0.29059000  1.0
  Tb  Tb21  1  0.50000000  0.50000000  0.79059000  1.0
  Tb  Tb22  1  0.50000000  0.50000000  0.20941000  1.0
  Tb  Tb23  1  0.00000000  0.00000000  0.70941000  1.0
  H  H24  1  0.37570000  0.03870000  0.38420000  1.0
  H  H25  1  0.36710000  0.27740000  0.35170000  1.0
  H  H26  1  0.39620000  0.36130000  0.38120000  1.0
  H  H27  1  0.56450000  0.35250000  0.41340000  1.0
  H  H28  1  0.49360000  0.40960000  0.47090000  1.0
  H  H29  1  0.31200000  0.26180000  0.43660000  1.0
  H  H30  1  0.19910000  0.17870000  0.49990000  1.0
  H  H31  1  0.21640000  0.45350000  0.50930000  1.0
  H  H32  1  0.33380000  0.45910000  0.48370000  1.0
  H  H33  1  0.87570000  0.53870000  0.88420000  1.0
  H  H34  1  0.86710000  0.77740000  0.85170000  1.0
  H  H35  1  0.89620000  0.86130000  0.88120000  1.0
  H  H36  1  0.06450000  0.85250000  0.91340000  1.0
  H  H37  1  0.99360000  0.90960000  0.97090000  1.0
  H  H38  1  0.81200000  0.76180000  0.93660000  1.0
  H  H39  1  0.69910000  0.67870000  0.99990000  1.0
  H  H40  1  0.71640000  0.95350000  0.00930000  1.0
  H  H41  1  0.83380000  0.95910000  0.98370000  1.0
  H  H42  1  0.62430000  0.96130000  0.38420000  1.0
  H  H43  1  0.63290000  0.72260000  0.35170000  1.0
  H  H44  1  0.60380000  0.63870000  0.38120000  1.0
  H  H45  1  0.43550000  0.64750000  0.41340000  1.0
  H  H46  1  0.50640000  0.59040000  0.47090000  1.0
  H  H47  1  0.68800000  0.73820000  0.43660000  1.0
  H  H48  1  0.80090000  0.82130000  0.49990000  1.0
  H  H49  1  0.78360000  0.54650000  0.50930000  1.0
  H  H50  1  0.66620000  0.54090000  0.48370000  1.0
  H  H51  1  0.12430000  0.46130000  0.88420000  1.0
  H  H52  1  0.13290000  0.22260000  0.85170000  1.0
  H  H53  1  0.10380000  0.13870000  0.88120000  1.0
  H  H54  1  0.93550000  0.14750000  0.91340000  1.0
  H  H55  1  0.00640000  0.09040000  0.97090000  1.0
  H  H56  1  0.18800000  0.23820000  0.93660000  1.0
  H  H57  1  0.30090000  0.32130000  0.99990000  1.0
  H  H58  1  0.28360000  0.04650000  0.00930000  1.0
  H  H59  1  0.16620000  0.04090000  0.98370000  1.0
  H  H60  1  0.03870000  0.62430000  0.61580000  1.0
  H  H61  1  0.27740000  0.63290000  0.64830000  1.0
  H  H62  1  0.36130000  0.60380000  0.61880000  1.0
  H  H63  1  0.35250000  0.43550000  0.58660000  1.0
  H  H64  1  0.40960000  0.50640000  0.52910000  1.0
  H  H65  1  0.26180000  0.68800000  0.56340000  1.0
  H  H66  1  0.17870000  0.80090000  0.50010000  1.0
  H  H67  1  0.45350000  0.78360000  0.49070000  1.0
  H  H68  1  0.45910000  0.66620000  0.51630000  1.0
  H  H69  1  0.53870000  0.12430000  0.11580000  1.0
  H  H70  1  0.77740000  0.13290000  0.14830000  1.0
  H  H71  1  0.86130000  0.10380000  0.11880000  1.0
  H  H72  1  0.85250000  0.93550000  0.08660000  1.0
  H  H73  1  0.90960000  0.00640000  0.02910000  1.0
  H  H74  1  0.76180000  0.18800000  0.06340000  1.0
  H  H75  1  0.67870000  0.30090000  0.00010000  1.0
  H  H76  1  0.95350000  0.28360000  0.99070000  1.0
  H  H77  1  0.95910000  0.16620000  0.01630000  1.0
  H  H78  1  0.96130000  0.37570000  0.61580000  1.0
  H  H79  1  0.72260000  0.36710000  0.64830000  1.0
  H  H80  1  0.63870000  0.39620000  0.61880000  1.0
  H  H81  1  0.64750000  0.56450000  0.58660000  1.0
  H  H82  1  0.59040000  0.49360000  0.52910000  1.0
  H  H83  1  0.73820000  0.31200000  0.56340000  1.0
  H  H84  1  0.82130000  0.19910000  0.50010000  1.0
  H  H85  1  0.54650000  0.21640000  0.49070000  1.0
  H  H86  1  0.54090000  0.33380000  0.51630000  1.0
  H  H87  1  0.46130000  0.87570000  0.11580000  1.0
  H  H88  1  0.22260000  0.86710000  0.14830000  1.0
  H  H89  1  0.13870000  0.89620000  0.11880000  1.0
  H  H90  1  0.14750000  0.06450000  0.08660000  1.0
  H  H91  1  0.09040000  0.99360000  0.02910000  1.0
  H  H92  1  0.23820000  0.81200000  0.06340000  1.0
  H  H93  1  0.32130000  0.69910000  0.00010000  1.0
  H  H94  1  0.04650000  0.71640000  0.99070000  1.0
  H  H95  1  0.04090000  0.83380000  0.01630000  1.0
  H  H96  1  0.12430000  0.03870000  0.36580000  1.0
  H  H97  1  0.13290000  0.27740000  0.39830000  1.0
  H  H98  1  0.10380000  0.36130000  0.36880000  1.0
  H  H99  1  0.93550000  0.35250000  0.33660000  1.0
  H  H100  1  0.00640000  0.40960000  0.27910000  1.0
  H  H101  1  0.18800000  0.26180000  0.31340000  1.0
  H  H102  1  0.30090000  0.17870000  0.25010000  1.0
  H  H103  1  0.28360000  0.45350000  0.24070000  1.0
  H  H104  1  0.16620000  0.45910000  0.26630000  1.0
  H  H105  1  0.62430000  0.53870000  0.86580000  1.0
  H  H106  1  0.63290000  0.77740000  0.89830000  1.0
  H  H107  1  0.60380000  0.86130000  0.86880000  1.0
  H  H108  1  0.43550000  0.85250000  0.83660000  1.0
  H  H109  1  0.50640000  0.90960000  0.77910000  1.0
  H  H110  1  0.68800000  0.76180000  0.81340000  1.0
  H  H111  1  0.80090000  0.67870000  0.75010000  1.0
  H  H112  1  0.78360000  0.95350000  0.74070000  1.0
  H  H113  1  0.66620000  0.95910000  0.76630000  1.0
  H  H114  1  0.87570000  0.96130000  0.36580000  1.0
  H  H115  1  0.86710000  0.72260000  0.39830000  1.0
  H  H116  1  0.89620000  0.63870000  0.36880000  1.0
  H  H117  1  0.06450000  0.64750000  0.33660000  1.0
  H  H118  1  0.99360000  0.59040000  0.27910000  1.0
  H  H119  1  0.81200000  0.73820000  0.31340000  1.0
  H  H120  1  0.69910000  0.82130000  0.25010000  1.0
  H  H121  1  0.71640000  0.54650000  0.24070000  1.0
  H  H122  1  0.83380000  0.54090000  0.26630000  1.0
  H  H123  1  0.37570000  0.46130000  0.86580000  1.0
  H  H124  1  0.36710000  0.22260000  0.89830000  1.0
  H  H125  1  0.39620000  0.13870000  0.86880000  1.0
  H  H126  1  0.56450000  0.14750000  0.83660000  1.0
  H  H127  1  0.49360000  0.09040000  0.77910000  1.0
  H  H128  1  0.31200000  0.23820000  0.81340000  1.0
  H  H129  1  0.19910000  0.32130000  0.75010000  1.0
  H  H130  1  0.21640000  0.04650000  0.74070000  1.0
  H  H131  1  0.33380000  0.04090000  0.76630000  1.0
  H  H132  1  0.46130000  0.62430000  0.13420000  1.0
  H  H133  1  0.22260000  0.63290000  0.10170000  1.0
  H  H134  1  0.13870000  0.60380000  0.13120000  1.0
  H  H135  1  0.14750000  0.43550000  0.16340000  1.0
  H  H136  1  0.09040000  0.50640000  0.22090000  1.0
  H  H137  1  0.23820000  0.68800000  0.18660000  1.0
  H  H138  1  0.32130000  0.80090000  0.24990000  1.0
  H  H139  1  0.04650000  0.78360000  0.25930000  1.0
  H  H140  1  0.04090000  0.66620000  0.23370000  1.0
  H  H141  1  0.96130000  0.12430000  0.63420000  1.0
  H  H142  1  0.72260000  0.13290000  0.60170000  1.0
  H  H143  1  0.63870000  0.10380000  0.63120000  1.0
  H  H144  1  0.64750000  0.93550000  0.66340000  1.0
  H  H145  1  0.59040000  0.00640000  0.72090000  1.0
  H  H146  1  0.73820000  0.18800000  0.68660000  1.0
  H  H147  1  0.82130000  0.30090000  0.74990000  1.0
  H  H148  1  0.54650000  0.28360000  0.75930000  1.0
  H  H149  1  0.54090000  0.16620000  0.73370000  1.0
  H  H150  1  0.53870000  0.37570000  0.13420000  1.0
  H  H151  1  0.77740000  0.36710000  0.10170000  1.0
  H  H152  1  0.86130000  0.39620000  0.13120000  1.0
  H  H153  1  0.85250000  0.56450000  0.16340000  1.0
  H  H154  1  0.90960000  0.49360000  0.22090000  1.0
  H  H155  1  0.76180000  0.31200000  0.18660000  1.0
  H  H156  1  0.67870000  0.19910000  0.24990000  1.0
  H  H157  1  0.95350000  0.21640000  0.25930000  1.0
  H  H158  1  0.95910000  0.33380000  0.23370000  1.0
  H  H159  1  0.03870000  0.87570000  0.63420000  1.0
  H  H160  1  0.27740000  0.86710000  0.60170000  1.0
  H  H161  1  0.36130000  0.89620000  0.63120000  1.0
  H  H162  1  0.35250000  0.06450000  0.66340000  1.0
  H  H163  1  0.40960000  0.99360000  0.72090000  1.0
  H  H164  1  0.26180000  0.81200000  0.68660000  1.0
  H  H165  1  0.17870000  0.69910000  0.74990000  1.0
  H  H166  1  0.45350000  0.71640000  0.75930000  1.0
  H  H167  1  0.45910000  0.83380000  0.73370000  1.0
  H  H168  1  0.00000000  0.00000000  0.42710000  1.0
  H  H169  1  0.50000000  0.50000000  0.92710000  1.0
  H  H170  1  0.00000000  0.00000000  0.57290000  1.0
  H  H171  1  0.50000000  0.50000000  0.07290000  1.0
  H  H172  1  0.50000000  0.00000000  0.32290000  1.0
  H  H173  1  0.00000000  0.50000000  0.82290000  1.0
  H  H174  1  0.50000000  0.00000000  0.17710000  1.0
  H  H175  1  0.00000000  0.50000000  0.67710000  1.0
  C  C176  1  0.42910000  0.09910000  0.42146000  1.0
  C  C177  1  0.40610000  0.15170000  0.40145000  1.0
  C  C178  1  0.38110000  0.10380000  0.38384000  1.0
  C  C179  1  0.36380000  0.15090000  0.36559000  1.0
  C  C180  1  0.33290000  0.09230000  0.34593000  1.0
  C  C181  1  0.37410000  0.24670000  0.36447000  1.0
  C  C182  1  0.39440000  0.29600000  0.38191000  1.0
  C  C183  1  0.41290000  0.25100000  0.40116000  1.0
  C  C184  1  0.43020000  0.30110000  0.42074000  1.0
  C  C185  1  0.52050000  0.35120000  0.42412000  1.0
  C  C186  1  0.47770000  0.38230000  0.45813000  1.0
  C  C187  1  0.39460000  0.33500000  0.45755000  1.0
  C  C188  1  0.36880000  0.29350000  0.43793000  1.0
  C  C189  1  0.32860000  0.32440000  0.47582000  1.0
  C  C190  1  0.29270000  0.23710000  0.48139000  1.0
  C  C191  1  0.32050000  0.14590000  0.47118000  1.0
  C  C192  1  0.22860000  0.23540000  0.49690000  1.0
  C  C193  1  0.20380000  0.31520000  0.50880000  1.0
  C  C194  1  0.23730000  0.39860000  0.50291000  1.0
  C  C195  1  0.30490000  0.40220000  0.48680000  1.0
  C  C196  1  0.13260000  0.29910000  0.52630000  1.0
  C  C197  1  0.92910000  0.59910000  0.92146000  1.0
  C  C198  1  0.90610000  0.65170000  0.90145000  1.0
  C  C199  1  0.88110000  0.60380000  0.88384000  1.0
  C  C200  1  0.86380000  0.65090000  0.86559000  1.0
  C  C201  1  0.83290000  0.59230000  0.84593000  1.0
  C  C202  1  0.87410000  0.74670000  0.86447000  1.0
  C  C203  1  0.89440000  0.79600000  0.88191000  1.0
  C  C204  1  0.91290000  0.75100000  0.90116000  1.0
  C  C205  1  0.93020000  0.80110000  0.92074000  1.0
  C  C206  1  0.02050000  0.85120000  0.92412000  1.0
  C  C207  1  0.97770000  0.88230000  0.95813000  1.0
  C  C208  1  0.89460000  0.83500000  0.95755000  1.0
  C  C209  1  0.86880000  0.79350000  0.93793000  1.0
  C  C210  1  0.82860000  0.82440000  0.97582000  1.0
  C  C211  1  0.79270000  0.73710000  0.98139000  1.0
  C  C212  1  0.82050000  0.64590000  0.97118000  1.0
  C  C213  1  0.72860000  0.73540000  0.99690000  1.0
  C  C214  1  0.70380000  0.81520000  0.00880000  1.0
  C  C215  1  0.73730000  0.89860000  0.00291000  1.0
  C  C216  1  0.80490000  0.90220000  0.98680000  1.0
  C  C217  1  0.63260000  0.79910000  0.02630000  1.0
  C  C218  1  0.57090000  0.90090000  0.42146000  1.0
  C  C219  1  0.59390000  0.84830000  0.40145000  1.0
  C  C220  1  0.61890000  0.89620000  0.38384000  1.0
  C  C221  1  0.63620000  0.84910000  0.36559000  1.0
  C  C222  1  0.66710000  0.90770000  0.34593000  1.0
  C  C223  1  0.62590000  0.75330000  0.36447000  1.0
  C  C224  1  0.60560000  0.70400000  0.38191000  1.0
  C  C225  1  0.58710000  0.74900000  0.40116000  1.0
  C  C226  1  0.56980000  0.69890000  0.42074000  1.0
  C  C227  1  0.47950000  0.64880000  0.42412000  1.0
  C  C228  1  0.52230000  0.61770000  0.45813000  1.0
  C  C229  1  0.60540000  0.66500000  0.45755000  1.0
  C  C230  1  0.63120000  0.70650000  0.43793000  1.0
  C  C231  1  0.67140000  0.67560000  0.47582000  1.0
  C  C232  1  0.70730000  0.76290000  0.48139000  1.0
  C  C233  1  0.67950000  0.85410000  0.47118000  1.0
  C  C234  1  0.77140000  0.76460000  0.49690000  1.0
  C  C235  1  0.79620000  0.68480000  0.50880000  1.0
  C  C236  1  0.76270000  0.60140000  0.50291000  1.0
  C  C237  1  0.69510000  0.59780000  0.48680000  1.0
  C  C238  1  0.86740000  0.70090000  0.52630000  1.0
  C  C239  1  0.07090000  0.40090000  0.92146000  1.0
  C  C240  1  0.09390000  0.34830000  0.90145000  1.0
  C  C241  1  0.11890000  0.39620000  0.88384000  1.0
  C  C242  1  0.13620000  0.34910000  0.86559000  1.0
  C  C243  1  0.16710000  0.40770000  0.84593000  1.0
  C  C244  1  0.12590000  0.25330000  0.86447000  1.0
  C  C245  1  0.10560000  0.20400000  0.88191000  1.0
  C  C246  1  0.08710000  0.24900000  0.90116000  1.0
  C  C247  1  0.06980000  0.19890000  0.92074000  1.0
  C  C248  1  0.97950000  0.14880000  0.92412000  1.0
  C  C249  1  0.02230000  0.11770000  0.95813000  1.0
  C  C250  1  0.10540000  0.16500000  0.95755000  1.0
  C  C251  1  0.13120000  0.20650000  0.93793000  1.0
  C  C252  1  0.17140000  0.17560000  0.97582000  1.0
  C  C253  1  0.20730000  0.26290000  0.98139000  1.0
  C  C254  1  0.17950000  0.35410000  0.97118000  1.0
  C  C255  1  0.27140000  0.26460000  0.99690000  1.0
  C  C256  1  0.29620000  0.18480000  0.00880000  1.0
  C  C257  1  0.26270000  0.10140000  0.00291000  1.0
  C  C258  1  0.19510000  0.09780000  0.98680000  1.0
  C  C259  1  0.36740000  0.20090000  0.02630000  1.0
  C  C260  1  0.09910000  0.57090000  0.57854000  1.0
  C  C261  1  0.15170000  0.59390000  0.59855000  1.0
  C  C262  1  0.10380000  0.61890000  0.61616000  1.0
  C  C263  1  0.15090000  0.63620000  0.63441000  1.0
  C  C264  1  0.09230000  0.66710000  0.65407000  1.0
  C  C265  1  0.24670000  0.62590000  0.63553000  1.0
  C  C266  1  0.29600000  0.60560000  0.61809000  1.0
  C  C267  1  0.25100000  0.58710000  0.59884000  1.0
  C  C268  1  0.30110000  0.56980000  0.57926000  1.0
  C  C269  1  0.35120000  0.47950000  0.57588000  1.0
  C  C270  1  0.38230000  0.52230000  0.54187000  1.0
  C  C271  1  0.33500000  0.60540000  0.54245000  1.0
  C  C272  1  0.29350000  0.63120000  0.56207000  1.0
  C  C273  1  0.32440000  0.67140000  0.52418000  1.0
  C  C274  1  0.23710000  0.70730000  0.51861000  1.0
  C  C275  1  0.14590000  0.67950000  0.52882000  1.0
  C  C276  1  0.23540000  0.77140000  0.50310000  1.0
  C  C277  1  0.31520000  0.79620000  0.49120000  1.0
  C  C278  1  0.39860000  0.76270000  0.49709000  1.0
  C  C279  1  0.40220000  0.69510000  0.51320000  1.0
  C  C280  1  0.29910000  0.86740000  0.47370000  1.0
  C  C281  1  0.59910000  0.07090000  0.07854000  1.0
  C  C282  1  0.65170000  0.09390000  0.09855000  1.0
  C  C283  1  0.60380000  0.11890000  0.11616000  1.0
  C  C284  1  0.65090000  0.13620000  0.13441000  1.0
  C  C285  1  0.59230000  0.16710000  0.15407000  1.0
  C  C286  1  0.74670000  0.12590000  0.13553000  1.0
  C  C287  1  0.79600000  0.10560000  0.11809000  1.0
  C  C288  1  0.75100000  0.08710000  0.09884000  1.0
  C  C289  1  0.80110000  0.06980000  0.07926000  1.0
  C  C290  1  0.85120000  0.97950000  0.07588000  1.0
  C  C291  1  0.88230000  0.02230000  0.04187000  1.0
  C  C292  1  0.83500000  0.10540000  0.04245000  1.0
  C  C293  1  0.79350000  0.13120000  0.06207000  1.0
  C  C294  1  0.82440000  0.17140000  0.02418000  1.0
  C  C295  1  0.73710000  0.20730000  0.01861000  1.0
  C  C296  1  0.64590000  0.17950000  0.02882000  1.0
  C  C297  1  0.73540000  0.27140000  0.00310000  1.0
  C  C298  1  0.81520000  0.29620000  0.99120000  1.0
  C  C299  1  0.89860000  0.26270000  0.99709000  1.0
  C  C300  1  0.90220000  0.19510000  0.01320000  1.0
  C  C301  1  0.79910000  0.36740000  0.97370000  1.0
  C  C302  1  0.90090000  0.42910000  0.57854000  1.0
  C  C303  1  0.84830000  0.40610000  0.59855000  1.0
  C  C304  1  0.89620000  0.38110000  0.61616000  1.0
  C  C305  1  0.84910000  0.36380000  0.63441000  1.0
  C  C306  1  0.90770000  0.33290000  0.65407000  1.0
  C  C307  1  0.75330000  0.37410000  0.63553000  1.0
  C  C308  1  0.70400000  0.39440000  0.61809000  1.0
  C  C309  1  0.74900000  0.41290000  0.59884000  1.0
  C  C310  1  0.69890000  0.43020000  0.57926000  1.0
  C  C311  1  0.64880000  0.52050000  0.57588000  1.0
  C  C312  1  0.61770000  0.47770000  0.54187000  1.0
  C  C313  1  0.66500000  0.39460000  0.54245000  1.0
  C  C314  1  0.70650000  0.36880000  0.56207000  1.0
  C  C315  1  0.67560000  0.32860000  0.52418000  1.0
  C  C316  1  0.76290000  0.29270000  0.51861000  1.0
  C  C317  1  0.85410000  0.32050000  0.52882000  1.0
  C  C318  1  0.76460000  0.22860000  0.50310000  1.0
  C  C319  1  0.68480000  0.20380000  0.49120000  1.0
  C  C320  1  0.60140000  0.23730000  0.49709000  1.0
  C  C321  1  0.59780000  0.30490000  0.51320000  1.0
  C  C322  1  0.70090000  0.13260000  0.47370000  1.0
  C  C323  1  0.40090000  0.92910000  0.07854000  1.0
  C  C324  1  0.34830000  0.90610000  0.09855000  1.0
  C  C325  1  0.39620000  0.88110000  0.11616000  1.0
  C  C326  1  0.34910000  0.86380000  0.13441000  1.0
  C  C327  1  0.40770000  0.83290000  0.15407000  1.0
  C  C328  1  0.25330000  0.87410000  0.13553000  1.0
  C  C329  1  0.20400000  0.89440000  0.11809000  1.0
  C  C330  1  0.24900000  0.91290000  0.09884000  1.0
  C  C331  1  0.19890000  0.93020000  0.07926000  1.0
  C  C332  1  0.14880000  0.02050000  0.07588000  1.0
  C  C333  1  0.11770000  0.97770000  0.04187000  1.0
  C  C334  1  0.16500000  0.89460000  0.04245000  1.0
  C  C335  1  0.20650000  0.86880000  0.06207000  1.0
  C  C336  1  0.17560000  0.82860000  0.02418000  1.0
  C  C337  1  0.26290000  0.79270000  0.01861000  1.0
  C  C338  1  0.35410000  0.82050000  0.02882000  1.0
  C  C339  1  0.26460000  0.72860000  0.00310000  1.0
  C  C340  1  0.18480000  0.70380000  0.99120000  1.0
  C  C341  1  0.10140000  0.73730000  0.99709000  1.0
  C  C342  1  0.09780000  0.80490000  0.01320000  1.0
  C  C343  1  0.20090000  0.63260000  0.97370000  1.0
  C  C344  1  0.07090000  0.09910000  0.32854000  1.0
  C  C345  1  0.09390000  0.15170000  0.34855000  1.0
  C  C346  1  0.11890000  0.10380000  0.36616000  1.0
  C  C347  1  0.13620000  0.15090000  0.38441000  1.0
  C  C348  1  0.16710000  0.09230000  0.40407000  1.0
  C  C349  1  0.12590000  0.24670000  0.38553000  1.0
  C  C350  1  0.10560000  0.29600000  0.36809000  1.0
  C  C351  1  0.08710000  0.25100000  0.34884000  1.0
  C  C352  1  0.06980000  0.30110000  0.32926000  1.0
  C  C353  1  0.97950000  0.35120000  0.32588000  1.0
  C  C354  1  0.02230000  0.38230000  0.29187000  1.0
  C  C355  1  0.10540000  0.33500000  0.29245000  1.0
  C  C356  1  0.13120000  0.29350000  0.31207000  1.0
  C  C357  1  0.17140000  0.32440000  0.27418000  1.0
  C  C358  1  0.20730000  0.23710000  0.26861000  1.0
  C  C359  1  0.17950000  0.14590000  0.27882000  1.0
  C  C360  1  0.27140000  0.23540000  0.25310000  1.0
  C  C361  1  0.29620000  0.31520000  0.24120000  1.0
  C  C362  1  0.26270000  0.39860000  0.24709000  1.0
  C  C363  1  0.19510000  0.40220000  0.26320000  1.0
  C  C364  1  0.36740000  0.29910000  0.22370000  1.0
  C  C365  1  0.57090000  0.59910000  0.82854000  1.0
  C  C366  1  0.59390000  0.65170000  0.84855000  1.0
  C  C367  1  0.61890000  0.60380000  0.86616000  1.0
  C  C368  1  0.63620000  0.65090000  0.88441000  1.0
  C  C369  1  0.66710000  0.59230000  0.90407000  1.0
  C  C370  1  0.62590000  0.74670000  0.88553000  1.0
  C  C371  1  0.60560000  0.79600000  0.86809000  1.0
  C  C372  1  0.58710000  0.75100000  0.84884000  1.0
  C  C373  1  0.56980000  0.80110000  0.82926000  1.0
  C  C374  1  0.47950000  0.85120000  0.82588000  1.0
  C  C375  1  0.52230000  0.88230000  0.79187000  1.0
  C  C376  1  0.60540000  0.83500000  0.79245000  1.0
  C  C377  1  0.63120000  0.79350000  0.81207000  1.0
  C  C378  1  0.67140000  0.82440000  0.77418000  1.0
  C  C379  1  0.70730000  0.73710000  0.76861000  1.0
  C  C380  1  0.67950000  0.64590000  0.77882000  1.0
  C  C381  1  0.77140000  0.73540000  0.75310000  1.0
  C  C382  1  0.79620000  0.81520000  0.74120000  1.0
  C  C383  1  0.76270000  0.89860000  0.74709000  1.0
  C  C384  1  0.69510000  0.90220000  0.76320000  1.0
  C  C385  1  0.86740000  0.79910000  0.72370000  1.0
  C  C386  1  0.92910000  0.90090000  0.32854000  1.0
  C  C387  1  0.90610000  0.84830000  0.34855000  1.0
  C  C388  1  0.88110000  0.89620000  0.36616000  1.0
  C  C389  1  0.86380000  0.84910000  0.38441000  1.0
  C  C390  1  0.83290000  0.90770000  0.40407000  1.0
  C  C391  1  0.87410000  0.75330000  0.38553000  1.0
  C  C392  1  0.89440000  0.70400000  0.36809000  1.0
  C  C393  1  0.91290000  0.74900000  0.34884000  1.0
  C  C394  1  0.93020000  0.69890000  0.32926000  1.0
  C  C395  1  0.02050000  0.64880000  0.32588000  1.0
  C  C396  1  0.97770000  0.61770000  0.29187000  1.0
  C  C397  1  0.89460000  0.66500000  0.29245000  1.0
  C  C398  1  0.86880000  0.70650000  0.31207000  1.0
  C  C399  1  0.82860000  0.67560000  0.27418000  1.0
  C  C400  1  0.79270000  0.76290000  0.26861000  1.0
  C  C401  1  0.82050000  0.85410000  0.27882000  1.0
  C  C402  1  0.72860000  0.76460000  0.25310000  1.0
  C  C403  1  0.70380000  0.68480000  0.24120000  1.0
  C  C404  1  0.73730000  0.60140000  0.24709000  1.0
  C  C405  1  0.80490000  0.59780000  0.26320000  1.0
  C  C406  1  0.63260000  0.70090000  0.22370000  1.0
  C  C407  1  0.42910000  0.40090000  0.82854000  1.0
  C  C408  1  0.40610000  0.34830000  0.84855000  1.0
  C  C409  1  0.38110000  0.39620000  0.86616000  1.0
  C  C410  1  0.36380000  0.34910000  0.88441000  1.0
  C  C411  1  0.33290000  0.40770000  0.90407000  1.0
  C  C412  1  0.37410000  0.25330000  0.88553000  1.0
  C  C413  1  0.39440000  0.20400000  0.86809000  1.0
  C  C414  1  0.41290000  0.24900000  0.84884000  1.0
  C  C415  1  0.43020000  0.19890000  0.82926000  1.0
  C  C416  1  0.52050000  0.14880000  0.82588000  1.0
  C  C417  1  0.47770000  0.11770000  0.79187000  1.0
  C  C418  1  0.39460000  0.16500000  0.79245000  1.0
  C  C419  1  0.36880000  0.20650000  0.81207000  1.0
  C  C420  1  0.32860000  0.17560000  0.77418000  1.0
  C  C421  1  0.29270000  0.26290000  0.76861000  1.0
  C  C422  1  0.32050000  0.35410000  0.77882000  1.0
  C  C423  1  0.22860000  0.26460000  0.75310000  1.0
  C  C424  1  0.20380000  0.18480000  0.74120000  1.0
  C  C425  1  0.23730000  0.10140000  0.74709000  1.0
  C  C426  1  0.30490000  0.09780000  0.76320000  1.0
  C  C427  1  0.13260000  0.20090000  0.72370000  1.0
  C  C428  1  0.40090000  0.57090000  0.17146000  1.0
  C  C429  1  0.34830000  0.59390000  0.15145000  1.0
  C  C430  1  0.39620000  0.61890000  0.13384000  1.0
  C  C431  1  0.34910000  0.63620000  0.11559000  1.0
  C  C432  1  0.40770000  0.66710000  0.09593000  1.0
  C  C433  1  0.25330000  0.62590000  0.11447000  1.0
  C  C434  1  0.20400000  0.60560000  0.13191000  1.0
  C  C435  1  0.24900000  0.58710000  0.15116000  1.0
  C  C436  1  0.19890000  0.56980000  0.17074000  1.0
  C  C437  1  0.14880000  0.47950000  0.17412000  1.0
  C  C438  1  0.11770000  0.52230000  0.20813000  1.0
  C  C439  1  0.16500000  0.60540000  0.20755000  1.0
  C  C440  1  0.20650000  0.63120000  0.18793000  1.0
  C  C441  1  0.17560000  0.67140000  0.22582000  1.0
  C  C442  1  0.26290000  0.70730000  0.23139000  1.0
  C  C443  1  0.35410000  0.67950000  0.22118000  1.0
  C  C444  1  0.26460000  0.77140000  0.24690000  1.0
  C  C445  1  0.18480000  0.79620000  0.25880000  1.0
  C  C446  1  0.10140000  0.76270000  0.25291000  1.0
  C  C447  1  0.09780000  0.69510000  0.23680000  1.0
  C  C448  1  0.20090000  0.86740000  0.27630000  1.0
  C  C449  1  0.90090000  0.07090000  0.67146000  1.0
  C  C450  1  0.84830000  0.09390000  0.65145000  1.0
  C  C451  1  0.89620000  0.11890000  0.63384000  1.0
  C  C452  1  0.84910000  0.13620000  0.61559000  1.0
  C  C453  1  0.90770000  0.16710000  0.59593000  1.0
  C  C454  1  0.75330000  0.12590000  0.61447000  1.0
  C  C455  1  0.70400000  0.10560000  0.63191000  1.0
  C  C456  1  0.74900000  0.08710000  0.65116000  1.0
  C  C457  1  0.69890000  0.06980000  0.67074000  1.0
  C  C458  1  0.64880000  0.97950000  0.67412000  1.0
  C  C459  1  0.61770000  0.02230000  0.70813000  1.0
  C  C460  1  0.66500000  0.10540000  0.70755000  1.0
  C  C461  1  0.70650000  0.13120000  0.68793000  1.0
  C  C462  1  0.67560000  0.17140000  0.72582000  1.0
  C  C463  1  0.76290000  0.20730000  0.73139000  1.0
  C  C464  1  0.85410000  0.17950000  0.72118000  1.0
  C  C465  1  0.76460000  0.27140000  0.74690000  1.0
  C  C466  1  0.68480000  0.29620000  0.75880000  1.0
  C  C467  1  0.60140000  0.26270000  0.75291000  1.0
  C  C468  1  0.59780000  0.19510000  0.73680000  1.0
  C  C469  1  0.70090000  0.36740000  0.77630000  1.0
  C  C470  1  0.59910000  0.42910000  0.17146000  1.0
  C  C471  1  0.65170000  0.40610000  0.15145000  1.0
  C  C472  1  0.60380000  0.38110000  0.13384000  1.0
  C  C473  1  0.65090000  0.36380000  0.11559000  1.0
  C  C474  1  0.59230000  0.33290000  0.09593000  1.0
  C  C475  1  0.74670000  0.37410000  0.11447000  1.0
  C  C476  1  0.79600000  0.39440000  0.13191000  1.0
  C  C477  1  0.75100000  0.41290000  0.15116000  1.0
  C  C478  1  0.80110000  0.43020000  0.17074000  1.0
  C  C479  1  0.85120000  0.52050000  0.17412000  1.0
  C  C480  1  0.88230000  0.47770000  0.20813000  1.0
  C  C481  1  0.83500000  0.39460000  0.20755000  1.0
  C  C482  1  0.79350000  0.36880000  0.18793000  1.0
  C  C483  1  0.82440000  0.32860000  0.22582000  1.0
  C  C484  1  0.73710000  0.29270000  0.23139000  1.0
  C  C485  1  0.64590000  0.32050000  0.22118000  1.0
  C  C486  1  0.73540000  0.22860000  0.24690000  1.0
  C  C487  1  0.81520000  0.20380000  0.25880000  1.0
  C  C488  1  0.89860000  0.23730000  0.25291000  1.0
  C  C489  1  0.90220000  0.30490000  0.23680000  1.0
  C  C490  1  0.79910000  0.13260000  0.27630000  1.0
  C  C491  1  0.09910000  0.92910000  0.67146000  1.0
  C  C492  1  0.15170000  0.90610000  0.65145000  1.0
  C  C493  1  0.10380000  0.88110000  0.63384000  1.0
  C  C494  1  0.15090000  0.86380000  0.61559000  1.0
  C  C495  1  0.09230000  0.83290000  0.59593000  1.0
  C  C496  1  0.24670000  0.87410000  0.61447000  1.0
  C  C497  1  0.29600000  0.89440000  0.63191000  1.0
  C  C498  1  0.25100000  0.91290000  0.65116000  1.0
  C  C499  1  0.30110000  0.93020000  0.67074000  1.0
  C  C500  1  0.35120000  0.02050000  0.67412000  1.0
  C  C501  1  0.38230000  0.97770000  0.70813000  1.0
  C  C502  1  0.33500000  0.89460000  0.70755000  1.0
  C  C503  1  0.29350000  0.86880000  0.68793000  1.0
  C  C504  1  0.32440000  0.82860000  0.72582000  1.0
  C  C505  1  0.23710000  0.79270000  0.73139000  1.0
  C  C506  1  0.14590000  0.82050000  0.72118000  1.0
  C  C507  1  0.23540000  0.72860000  0.74690000  1.0
  C  C508  1  0.31520000  0.70380000  0.75880000  1.0
  C  C509  1  0.39860000  0.73730000  0.75291000  1.0
  C  C510  1  0.40220000  0.80490000  0.73680000  1.0
  C  C511  1  0.29910000  0.63260000  0.77630000  1.0
  C  C512  1  0.00000000  0.00000000  0.44170000  1.0
  C  C513  1  0.50000000  0.50000000  0.94170000  1.0
  C  C514  1  0.00000000  0.00000000  0.55830000  1.0
  C  C515  1  0.50000000  0.50000000  0.05830000  1.0
  C  C516  1  0.50000000  0.00000000  0.30830000  1.0
  C  C517  1  0.00000000  0.50000000  0.80830000  1.0
  C  C518  1  0.50000000  0.00000000  0.19170000  1.0
  C  C519  1  0.00000000  0.50000000  0.69170000  1.0
  N  N520  1  0.54020000  0.39440000  0.44220000  1.0
  N  N521  1  0.04020000  0.89440000  0.94220000  1.0
  N  N522  1  0.45980000  0.60560000  0.44220000  1.0
  N  N523  1  0.95980000  0.10560000  0.94220000  1.0
  N  N524  1  0.39440000  0.45980000  0.55780000  1.0
  N  N525  1  0.89440000  0.95980000  0.05780000  1.0
  N  N526  1  0.60560000  0.54020000  0.55780000  1.0
  N  N527  1  0.10560000  0.04020000  0.05780000  1.0
  N  N528  1  0.95980000  0.39440000  0.30780000  1.0
  N  N529  1  0.45980000  0.89440000  0.80780000  1.0
  N  N530  1  0.04020000  0.60560000  0.30780000  1.0
  N  N531  1  0.54020000  0.10560000  0.80780000  1.0
  N  N532  1  0.10560000  0.45980000  0.19220000  1.0
  N  N533  1  0.60560000  0.95980000  0.69220000  1.0
  N  N534  1  0.89440000  0.54020000  0.19220000  1.0
  N  N535  1  0.39440000  0.04020000  0.69220000  1.0
  O  O536  1  0.36910000  0.03910000  0.42818000  1.0
  O  O537  1  0.50520000  0.11270000  0.43022000  1.0
  O  O538  1  0.32380000  0.00720000  0.34779000  1.0
  O  O539  1  0.31800000  0.13610000  0.32923000  1.0
  O  O540  1  0.40590000  0.12830000  0.47003000  1.0
  O  O541  1  0.25480000  0.09340000  0.46430000  1.0
  O  O542  1  0.11160000  0.21900000  0.53200000  1.0
  O  O543  1  0.09270000  0.37180000  0.53451000  1.0
  O  O544  1  0.07520000  0.01070000  0.44945000  1.0
  O  O545  1  0.86910000  0.53910000  0.92818000  1.0
  O  O546  1  0.00520000  0.61270000  0.93022000  1.0
  O  O547  1  0.82380000  0.50720000  0.84779000  1.0
  O  O548  1  0.81800000  0.63610000  0.82923000  1.0
  O  O549  1  0.90590000  0.62830000  0.97003000  1.0
  O  O550  1  0.75480000  0.59340000  0.96430000  1.0
  O  O551  1  0.61160000  0.71900000  0.03200000  1.0
  O  O552  1  0.59270000  0.87180000  0.03451000  1.0
  O  O553  1  0.57520000  0.51070000  0.94945000  1.0
  O  O554  1  0.63090000  0.96090000  0.42818000  1.0
  O  O555  1  0.49480000  0.88730000  0.43022000  1.0
  O  O556  1  0.67620000  0.99280000  0.34779000  1.0
  O  O557  1  0.68200000  0.86390000  0.32923000  1.0
  O  O558  1  0.59410000  0.87170000  0.47003000  1.0
  O  O559  1  0.74520000  0.90660000  0.46430000  1.0
  O  O560  1  0.88840000  0.78100000  0.53200000  1.0
  O  O561  1  0.90730000  0.62820000  0.53451000  1.0
  O  O562  1  0.92480000  0.98930000  0.44945000  1.0
  O  O563  1  0.13090000  0.46090000  0.92818000  1.0
  O  O564  1  0.99480000  0.38730000  0.93022000  1.0
  O  O565  1  0.17620000  0.49280000  0.84779000  1.0
  O  O566  1  0.18200000  0.36390000  0.82923000  1.0
  O  O567  1  0.09410000  0.37170000  0.97003000  1.0
  O  O568  1  0.24520000  0.40660000  0.96430000  1.0
  O  O569  1  0.38840000  0.28100000  0.03200000  1.0
  O  O570  1  0.40730000  0.12820000  0.03451000  1.0
  O  O571  1  0.42480000  0.48930000  0.94945000  1.0
  O  O572  1  0.03910000  0.63090000  0.57182000  1.0
  O  O573  1  0.11270000  0.49480000  0.56978000  1.0
  O  O574  1  0.00720000  0.67620000  0.65221000  1.0
  O  O575  1  0.13610000  0.68200000  0.67077000  1.0
  O  O576  1  0.12830000  0.59410000  0.52997000  1.0
  O  O577  1  0.09340000  0.74520000  0.53570000  1.0
  O  O578  1  0.21900000  0.88840000  0.46800000  1.0
  O  O579  1  0.37180000  0.90730000  0.46549000  1.0
  O  O580  1  0.01070000  0.92480000  0.55055000  1.0
  O  O581  1  0.53910000  0.13090000  0.07182000  1.0
  O  O582  1  0.61270000  0.99480000  0.06978000  1.0
  O  O583  1  0.50720000  0.17620000  0.15221000  1.0
  O  O584  1  0.63610000  0.18200000  0.17077000  1.0
  O  O585  1  0.62830000  0.09410000  0.02997000  1.0
  O  O586  1  0.59340000  0.24520000  0.03570000  1.0
  O  O587  1  0.71900000  0.38840000  0.96800000  1.0
  O  O588  1  0.87180000  0.40730000  0.96549000  1.0
  O  O589  1  0.51070000  0.42480000  0.05055000  1.0
  O  O590  1  0.96090000  0.36910000  0.57182000  1.0
  O  O591  1  0.88730000  0.50520000  0.56978000  1.0
  O  O592  1  0.99280000  0.32380000  0.65221000  1.0
  O  O593  1  0.86390000  0.31800000  0.67077000  1.0
  O  O594  1  0.87170000  0.40590000  0.52997000  1.0
  O  O595  1  0.90660000  0.25480000  0.53570000  1.0
  O  O596  1  0.78100000  0.11160000  0.46800000  1.0
  O  O597  1  0.62820000  0.09270000  0.46549000  1.0
  O  O598  1  0.98930000  0.07520000  0.55055000  1.0
  O  O599  1  0.46090000  0.86910000  0.07182000  1.0
  O  O600  1  0.38730000  0.00520000  0.06978000  1.0
  O  O601  1  0.49280000  0.82380000  0.15221000  1.0
  O  O602  1  0.36390000  0.81800000  0.17077000  1.0
  O  O603  1  0.37170000  0.90590000  0.02997000  1.0
  O  O604  1  0.40660000  0.75480000  0.03570000  1.0
  O  O605  1  0.28100000  0.61160000  0.96800000  1.0
  O  O606  1  0.12820000  0.59270000  0.96549000  1.0
  O  O607  1  0.48930000  0.57520000  0.05055000  1.0
  O  O608  1  0.13090000  0.03910000  0.32182000  1.0
  O  O609  1  0.99480000  0.11270000  0.31978000  1.0
  O  O610  1  0.17620000  0.00720000  0.40221000  1.0
  O  O611  1  0.18200000  0.13610000  0.42077000  1.0
  O  O612  1  0.09410000  0.12830000  0.27997000  1.0
  O  O613  1  0.24520000  0.09340000  0.28570000  1.0
  O  O614  1  0.38840000  0.21900000  0.21800000  1.0
  O  O615  1  0.40730000  0.37180000  0.21549000  1.0
  O  O616  1  0.42480000  0.01070000  0.30055000  1.0
  O  O617  1  0.63090000  0.53910000  0.82182000  1.0
  O  O618  1  0.49480000  0.61270000  0.81978000  1.0
  O  O619  1  0.67620000  0.50720000  0.90221000  1.0
  O  O620  1  0.68200000  0.63610000  0.92077000  1.0
  O  O621  1  0.59410000  0.62830000  0.77997000  1.0
  O  O622  1  0.74520000  0.59340000  0.78570000  1.0
  O  O623  1  0.88840000  0.71900000  0.71800000  1.0
  O  O624  1  0.90730000  0.87180000  0.71549000  1.0
  O  O625  1  0.92480000  0.51070000  0.80055000  1.0
  O  O626  1  0.86910000  0.96090000  0.32182000  1.0
  O  O627  1  0.00520000  0.88730000  0.31978000  1.0
  O  O628  1  0.82380000  0.99280000  0.40221000  1.0
  O  O629  1  0.81800000  0.86390000  0.42077000  1.0
  O  O630  1  0.90590000  0.87170000  0.27997000  1.0
  O  O631  1  0.75480000  0.90660000  0.28570000  1.0
  O  O632  1  0.61160000  0.78100000  0.21800000  1.0
  O  O633  1  0.59270000  0.62820000  0.21549000  1.0
  O  O634  1  0.57520000  0.98930000  0.30055000  1.0
  O  O635  1  0.36910000  0.46090000  0.82182000  1.0
  O  O636  1  0.50520000  0.38730000  0.81978000  1.0
  O  O637  1  0.32380000  0.49280000  0.90221000  1.0
  O  O638  1  0.31800000  0.36390000  0.92077000  1.0
  O  O639  1  0.40590000  0.37170000  0.77997000  1.0
  O  O640  1  0.25480000  0.40660000  0.78570000  1.0
  O  O641  1  0.11160000  0.28100000  0.71800000  1.0
  O  O642  1  0.09270000  0.12820000  0.71549000  1.0
  O  O643  1  0.07520000  0.48930000  0.80055000  1.0
  O  O644  1  0.46090000  0.63090000  0.17818000  1.0
  O  O645  1  0.38730000  0.49480000  0.18022000  1.0
  O  O646  1  0.49280000  0.67620000  0.09779000  1.0
  O  O647  1  0.36390000  0.68200000  0.07923000  1.0
  O  O648  1  0.37170000  0.59410000  0.22003000  1.0
  O  O649  1  0.40660000  0.74520000  0.21430000  1.0
  O  O650  1  0.28100000  0.88840000  0.28200000  1.0
  O  O651  1  0.12820000  0.90730000  0.28451000  1.0
  O  O652  1  0.48930000  0.92480000  0.19945000  1.0
  O  O653  1  0.96090000  0.13090000  0.67818000  1.0
  O  O654  1  0.88730000  0.99480000  0.68022000  1.0
  O  O655  1  0.99280000  0.17620000  0.59779000  1.0
  O  O656  1  0.86390000  0.18200000  0.57923000  1.0
  O  O657  1  0.87170000  0.09410000  0.72003000  1.0
  O  O658  1  0.90660000  0.24520000  0.71430000  1.0
  O  O659  1  0.78100000  0.38840000  0.78200000  1.0
  O  O660  1  0.62820000  0.40730000  0.78451000  1.0
  O  O661  1  0.98930000  0.42480000  0.69945000  1.0
  O  O662  1  0.53910000  0.36910000  0.17818000  1.0
  O  O663  1  0.61270000  0.50520000  0.18022000  1.0
  O  O664  1  0.50720000  0.32380000  0.09779000  1.0
  O  O665  1  0.63610000  0.31800000  0.07923000  1.0
  O  O666  1  0.62830000  0.40590000  0.22003000  1.0
  O  O667  1  0.59340000  0.25480000  0.21430000  1.0
  O  O668  1  0.71900000  0.11160000  0.28200000  1.0
  O  O669  1  0.87180000  0.09270000  0.28451000  1.0
  O  O670  1  0.51070000  0.07520000  0.19945000  1.0
  O  O671  1  0.03910000  0.86910000  0.67818000  1.0
  O  O672  1  0.11270000  0.00520000  0.68022000  1.0
  O  O673  1  0.00720000  0.82380000  0.59779000  1.0
  O  O674  1  0.13610000  0.81800000  0.57923000  1.0
  O  O675  1  0.12830000  0.90590000  0.72003000  1.0
  O  O676  1  0.09340000  0.75480000  0.71430000  1.0
  O  O677  1  0.21900000  0.61160000  0.78200000  1.0
  O  O678  1  0.37180000  0.59270000  0.78451000  1.0
  O  O679  1  0.01070000  0.57520000  0.69945000  1.0
