# generated using pymatgen
data_Tb2H6C14S(NO6)2
_symmetry_space_group_name_H-M   'P 1'
_cell_length_a   26.29110000
_cell_length_b   13.57610000
_cell_length_c   6.76200000
_cell_angle_alpha   90.00000000
_cell_angle_beta   92.44300000
_cell_angle_gamma   90.00000000
_symmetry_Int_Tables_number   1
_chemical_formula_structural   Tb2H6C14S(NO6)2
_chemical_formula_sum   'Tb8 H24 C56 S4 N8 O48'
_cell_volume   2411.37109820
_cell_formula_units_Z   4
loop_
 _symmetry_equiv_pos_site_id
 _symmetry_equiv_pos_as_xyz
  1  'x, y, z'
loop_
 _atom_site_type_symbol
 _atom_site_label
 _atom_site_symmetry_multiplicity
 _atom_site_fract_x
 _atom_site_fract_y
 _atom_site_fract_z
 _atom_site_occupancy
  Tb  Tb0  1  0.89641000  0.19315000  0.98843000  1.0
  Tb  Tb1  1  0.39641000  0.69315000  0.98843000  1.0
  Tb  Tb2  1  0.10359000  0.19315000  0.51157000  1.0
  Tb  Tb3  1  0.60359000  0.69315000  0.51157000  1.0
  Tb  Tb4  1  0.10359000  0.80685000  0.01157000  1.0
  Tb  Tb5  1  0.60359000  0.30685000  0.01157000  1.0
  Tb  Tb6  1  0.89641000  0.80685000  0.48843000  1.0
  Tb  Tb7  1  0.39641000  0.30685000  0.48843000  1.0
  H  H8  1  0.85690000  0.55100000  0.94830000  1.0
  H  H9  1  0.73030000  0.38790000  0.91040000  1.0
  H  H10  1  0.72620000  0.68200000  0.86630000  1.0
  H  H11  1  0.35690000  0.05100000  0.94830000  1.0
  H  H12  1  0.23030000  0.88790000  0.91040000  1.0
  H  H13  1  0.22620000  0.18200000  0.86630000  1.0
  H  H14  1  0.14310000  0.55100000  0.55170000  1.0
  H  H15  1  0.26970000  0.38790000  0.58960000  1.0
  H  H16  1  0.27380000  0.68200000  0.63370000  1.0
  H  H17  1  0.64310000  0.05100000  0.55170000  1.0
  H  H18  1  0.76970000  0.88790000  0.58960000  1.0
  H  H19  1  0.77380000  0.18200000  0.63370000  1.0
  H  H20  1  0.14310000  0.44900000  0.05170000  1.0
  H  H21  1  0.26970000  0.61210000  0.08960000  1.0
  H  H22  1  0.27380000  0.31800000  0.13370000  1.0
  H  H23  1  0.64310000  0.94900000  0.05170000  1.0
  H  H24  1  0.76970000  0.11210000  0.08960000  1.0
  H  H25  1  0.77380000  0.81800000  0.13370000  1.0
  H  H26  1  0.85690000  0.44900000  0.44830000  1.0
  H  H27  1  0.73030000  0.61210000  0.41040000  1.0
  H  H28  1  0.72620000  0.31800000  0.36630000  1.0
  H  H29  1  0.35690000  0.94900000  0.44830000  1.0
  H  H30  1  0.23030000  0.11210000  0.41040000  1.0
  H  H31  1  0.22620000  0.81800000  0.36630000  1.0
  C  C32  1  0.82160000  0.54710000  0.93090000  1.0
  C  C33  1  0.79950000  0.45480000  0.93310000  1.0
  C  C34  1  0.74660000  0.44870000  0.91070000  1.0
  C  C35  1  0.71864000  0.53550000  0.88880000  1.0
  C  C36  1  0.74490000  0.62430000  0.88460000  1.0
  C  C37  1  0.83220000  0.36460000  0.95500000  1.0
  C  C38  1  0.66140000  0.53620000  0.86460000  1.0
  C  C39  1  0.32160000  0.04710000  0.93090000  1.0
  C  C40  1  0.29950000  0.95480000  0.93310000  1.0
  C  C41  1  0.24660000  0.94870000  0.91070000  1.0
  C  C42  1  0.21864000  0.03550000  0.88880000  1.0
  C  C43  1  0.24490000  0.12430000  0.88460000  1.0
  C  C44  1  0.33220000  0.86460000  0.95500000  1.0
  C  C45  1  0.16140000  0.03620000  0.86460000  1.0
  C  C46  1  0.17840000  0.54710000  0.56910000  1.0
  C  C47  1  0.20050000  0.45480000  0.56690000  1.0
  C  C48  1  0.25340000  0.44870000  0.58930000  1.0
  C  C49  1  0.28136000  0.53550000  0.61120000  1.0
  C  C50  1  0.25510000  0.62430000  0.61540000  1.0
  C  C51  1  0.16780000  0.36460000  0.54500000  1.0
  C  C52  1  0.33860000  0.53620000  0.63540000  1.0
  C  C53  1  0.67840000  0.04710000  0.56910000  1.0
  C  C54  1  0.70050000  0.95480000  0.56690000  1.0
  C  C55  1  0.75340000  0.94870000  0.58930000  1.0
  C  C56  1  0.78136000  0.03550000  0.61120000  1.0
  C  C57  1  0.75510000  0.12430000  0.61540000  1.0
  C  C58  1  0.66780000  0.86460000  0.54500000  1.0
  C  C59  1  0.83860000  0.03620000  0.63540000  1.0
  C  C60  1  0.17840000  0.45290000  0.06910000  1.0
  C  C61  1  0.20050000  0.54520000  0.06690000  1.0
  C  C62  1  0.25340000  0.55130000  0.08930000  1.0
  C  C63  1  0.28136000  0.46450000  0.11120000  1.0
  C  C64  1  0.25510000  0.37570000  0.11540000  1.0
  C  C65  1  0.16780000  0.63540000  0.04500000  1.0
  C  C66  1  0.33860000  0.46380000  0.13540000  1.0
  C  C67  1  0.67840000  0.95290000  0.06910000  1.0
  C  C68  1  0.70050000  0.04520000  0.06690000  1.0
  C  C69  1  0.75340000  0.05130000  0.08930000  1.0
  C  C70  1  0.78136000  0.96450000  0.11120000  1.0
  C  C71  1  0.75510000  0.87570000  0.11540000  1.0
  C  C72  1  0.66780000  0.13540000  0.04500000  1.0
  C  C73  1  0.83860000  0.96380000  0.13540000  1.0
  C  C74  1  0.82160000  0.45290000  0.43090000  1.0
  C  C75  1  0.79950000  0.54520000  0.43310000  1.0
  C  C76  1  0.74660000  0.55130000  0.41070000  1.0
  C  C77  1  0.71864000  0.46450000  0.38880000  1.0
  C  C78  1  0.74490000  0.37570000  0.38460000  1.0
  C  C79  1  0.83220000  0.63540000  0.45500000  1.0
  C  C80  1  0.66140000  0.46380000  0.36460000  1.0
  C  C81  1  0.32160000  0.95290000  0.43090000  1.0
  C  C82  1  0.29950000  0.04520000  0.43310000  1.0
  C  C83  1  0.24660000  0.05130000  0.41070000  1.0
  C  C84  1  0.21864000  0.96450000  0.38880000  1.0
  C  C85  1  0.24490000  0.87570000  0.38460000  1.0
  C  C86  1  0.33220000  0.13540000  0.45500000  1.0
  C  C87  1  0.16140000  0.96380000  0.36460000  1.0
  S  S88  1  0.00000000  0.20132000  0.25000000  1.0
  S  S89  1  0.50000000  0.70132000  0.25000000  1.0
  S  S90  1  0.00000000  0.79868000  0.75000000  1.0
  S  S91  1  0.50000000  0.29868000  0.75000000  1.0
  N  N92  1  0.79571000  0.63120000  0.90560000  1.0
  N  N93  1  0.29571000  0.13120000  0.90560000  1.0
  N  N94  1  0.20429000  0.63120000  0.59440000  1.0
  N  N95  1  0.70429000  0.13120000  0.59440000  1.0
  N  N96  1  0.20429000  0.36880000  0.09440000  1.0
  N  N97  1  0.70429000  0.86880000  0.09440000  1.0
  N  N98  1  0.79571000  0.36880000  0.40560000  1.0
  N  N99  1  0.29571000  0.86880000  0.40560000  1.0
  O  O100  1  0.87857000  0.37530000  0.00730000  1.0
  O  O101  1  0.81320000  0.28080000  0.92280000  1.0
  O  O102  1  0.63805000  0.45970000  0.90410000  1.0
  O  O103  1  0.64042000  0.61550000  0.80910000  1.0
  O  O104  1  0.95545000  0.13980000  0.29070000  1.0
  O  O105  1  0.98452000  0.26050000  0.07810000  1.0
  O  O106  1  0.37857000  0.87530000  0.00730000  1.0
  O  O107  1  0.31320000  0.78080000  0.92280000  1.0
  O  O108  1  0.13805000  0.95970000  0.90410000  1.0
  O  O109  1  0.14042000  0.11550000  0.80910000  1.0
  O  O110  1  0.45545000  0.63980000  0.29070000  1.0
  O  O111  1  0.48452000  0.76050000  0.07810000  1.0
  O  O112  1  0.12143000  0.37530000  0.49270000  1.0
  O  O113  1  0.18680000  0.28080000  0.57720000  1.0
  O  O114  1  0.36195000  0.45970000  0.59590000  1.0
  O  O115  1  0.35958000  0.61550000  0.69090000  1.0
  O  O116  1  0.04455000  0.13980000  0.20930000  1.0
  O  O117  1  0.01548000  0.26050000  0.42190000  1.0
  O  O118  1  0.62143000  0.87530000  0.49270000  1.0
  O  O119  1  0.68680000  0.78080000  0.57720000  1.0
  O  O120  1  0.86195000  0.95970000  0.59590000  1.0
  O  O121  1  0.85958000  0.11550000  0.69090000  1.0
  O  O122  1  0.54455000  0.63980000  0.20930000  1.0
  O  O123  1  0.51548000  0.76050000  0.42190000  1.0
  O  O124  1  0.12143000  0.62470000  0.99270000  1.0
  O  O125  1  0.18680000  0.71920000  0.07720000  1.0
  O  O126  1  0.36195000  0.54030000  0.09590000  1.0
  O  O127  1  0.35958000  0.38450000  0.19090000  1.0
  O  O128  1  0.04455000  0.86020000  0.70930000  1.0
  O  O129  1  0.01548000  0.73950000  0.92190000  1.0
  O  O130  1  0.62143000  0.12470000  0.99270000  1.0
  O  O131  1  0.68680000  0.21920000  0.07720000  1.0
  O  O132  1  0.86195000  0.04030000  0.09590000  1.0
  O  O133  1  0.85958000  0.88450000  0.19090000  1.0
  O  O134  1  0.54455000  0.36020000  0.70930000  1.0
  O  O135  1  0.51548000  0.23950000  0.92190000  1.0
  O  O136  1  0.87857000  0.62470000  0.50730000  1.0
  O  O137  1  0.81320000  0.71920000  0.42280000  1.0
  O  O138  1  0.63805000  0.54030000  0.40410000  1.0
  O  O139  1  0.64042000  0.38450000  0.30910000  1.0
  O  O140  1  0.95545000  0.86020000  0.79070000  1.0
  O  O141  1  0.98452000  0.73950000  0.57810000  1.0
  O  O142  1  0.37857000  0.12470000  0.50730000  1.0
  O  O143  1  0.31320000  0.21920000  0.42280000  1.0
  O  O144  1  0.13805000  0.04030000  0.40410000  1.0
  O  O145  1  0.14042000  0.88450000  0.30910000  1.0
  O  O146  1  0.45545000  0.36020000  0.79070000  1.0
  O  O147  1  0.48452000  0.23950000  0.57810000  1.0
