# generated using pymatgen
data_Zn2H5C9O8
_symmetry_space_group_name_H-M   'P 1'
_cell_length_a   6.92800000
_cell_length_b   17.56480000
_cell_length_c   17.56480000
_cell_angle_alpha   61.70110000
_cell_angle_beta   82.44510000
_cell_angle_gamma   97.55490000
_symmetry_Int_Tables_number   1
_chemical_formula_structural   Zn2H5C9O8
_chemical_formula_sum   'Zn12 H30 C54 O48'
_cell_volume   1819.08087748
_cell_formula_units_Z   6
loop_
 _symmetry_equiv_pos_site_id
 _symmetry_equiv_pos_as_xyz
  1  'x, y, z'
loop_
 _atom_site_type_symbol
 _atom_site_label
 _atom_site_symmetry_multiplicity
 _atom_site_fract_x
 _atom_site_fract_y
 _atom_site_fract_z
 _atom_site_occupancy
  Zn  Zn0  1  0.74487000  0.00965000  0.70910000  1.0
  Zn  Zn1  1  0.55830000  0.12604000  0.53554000  1.0
  Zn  Zn2  1  0.45397000  0.70910000  0.28125000  1.0
  Zn  Zn3  1  0.09384000  0.53554000  0.33842000  1.0
  Zn  Zn4  1  0.73522000  0.28125000  0.00965000  1.0
  Zn  Zn5  1  0.43226000  0.33842000  0.12604000  1.0
  Zn  Zn6  1  0.95397000  0.71875000  0.29090000  1.0
  Zn  Zn7  1  0.59384000  0.66158000  0.46446000  1.0
  Zn  Zn8  1  0.23522000  0.99035000  0.71875000  1.0
  Zn  Zn9  1  0.93226000  0.87396000  0.66158000  1.0
  Zn  Zn10  1  0.24487000  0.29090000  0.99035000  1.0
  Zn  Zn11  1  0.05830000  0.46446000  0.87396000  1.0
  H  H12  1  0.50450000  0.95750000  0.64330000  1.0
  H  H13  1  0.58840000  0.29060000  0.40910000  1.0
  H  H14  1  0.58300000  0.79450000  0.99510000  1.0
  H  H15  1  0.46880000  0.67290000  0.85520000  1.0
  H  H16  1  0.32720000  0.53450000  0.12240000  1.0
  H  H17  1  0.14780000  0.64330000  0.39920000  1.0
  H  H18  1  0.99750000  0.40910000  0.30030000  1.0
  H  H19  1  0.57810000  0.99510000  0.21040000  1.0
  H  H20  1  0.32400000  0.85520000  0.47190000  1.0
  H  H21  1  0.44960000  0.12240000  0.34310000  1.0
  H  H22  1  0.54700000  0.39920000  0.95750000  1.0
  H  H23  1  0.29780000  0.30030000  0.29060000  1.0
  H  H24  1  0.78850000  0.21040000  0.79450000  1.0
  H  H25  1  0.79590000  0.47190000  0.67290000  1.0
  H  H26  1  0.79270000  0.34310000  0.53450000  1.0
  H  H27  1  0.64780000  0.60080000  0.35670000  1.0
  H  H28  1  0.49750000  0.69970000  0.59090000  1.0
  H  H29  1  0.07810000  0.78960000  0.00490000  1.0
  H  H30  1  0.82400000  0.52810000  0.14480000  1.0
  H  H31  1  0.94960000  0.65690000  0.87760000  1.0
  H  H32  1  0.04700000  0.04250000  0.60080000  1.0
  H  H33  1  0.79780000  0.70940000  0.69970000  1.0
  H  H34  1  0.28850000  0.20550000  0.78960000  1.0
  H  H35  1  0.29590000  0.32710000  0.52810000  1.0
  H  H36  1  0.29270000  0.46550000  0.65690000  1.0
  H  H37  1  0.00450000  0.35670000  0.04250000  1.0
  H  H38  1  0.08840000  0.59090000  0.70940000  1.0
  H  H39  1  0.08300000  0.00490000  0.20550000  1.0
  H  H40  1  0.96880000  0.14480000  0.32710000  1.0
  H  H41  1  0.82720000  0.87760000  0.46550000  1.0
  C  C42  1  0.45304000  0.66408000  0.07156000  1.0
  C  C43  1  0.53992000  0.74669000  0.91243000  1.0
  C  C44  1  0.38649000  0.59057000  0.98830000  1.0
  C  C45  1  0.53357000  0.74362000  0.99351000  1.0
  C  C46  1  0.46559000  0.67041000  0.90944000  1.0
  C  C47  1  0.62881000  0.83142000  0.82649000  1.0
  C  C48  1  0.38016000  0.58759000  0.06971000  1.0
  C  C49  1  0.29836000  0.50947000  0.98619000  1.0
  C  C50  1  0.43673000  0.65979000  0.15970000  1.0
  C  C51  1  0.52460000  0.07156000  0.26436000  1.0
  C  C52  1  0.45235000  0.91243000  0.34088000  1.0
  C  C53  1  0.37479000  0.98830000  0.42113000  1.0
  C  C54  1  0.52708000  0.99351000  0.26287000  1.0
  C  C55  1  0.37503000  0.90944000  0.42015000  1.0
  C  C56  1  0.45530000  0.82649000  0.34209000  1.0
  C  C57  1  0.44987000  0.06971000  0.34270000  1.0
  C  C58  1  0.28455000  0.98619000  0.50434000  1.0
  C  C59  1  0.59643000  0.15970000  0.18051000  1.0
  C  C60  1  0.78896000  0.26436000  0.66408000  1.0
  C  C61  1  0.79323000  0.34088000  0.74669000  1.0
  C  C62  1  0.79592000  0.42113000  0.59057000  1.0
  C  C63  1  0.78995000  0.26287000  0.74362000  1.0
  C  C64  1  0.79518000  0.42015000  0.67041000  1.0
  C  C65  1  0.79739000  0.34209000  0.83142000  1.0
  C  C66  1  0.79257000  0.34270000  0.58759000  1.0
  C  C67  1  0.78889000  0.50434000  0.50947000  1.0
  C  C68  1  0.77694000  0.18051000  0.65979000  1.0
  C  C69  1  0.02460000  0.73564000  0.92844000  1.0
  C  C70  1  0.95235000  0.65912000  0.08757000  1.0
  C  C71  1  0.87479000  0.57887000  0.01170000  1.0
  C  C72  1  0.02708000  0.73713000  0.00649000  1.0
  C  C73  1  0.87503000  0.57985000  0.09056000  1.0
  C  C74  1  0.95530000  0.65791000  0.17351000  1.0
  C  C75  1  0.94987000  0.65730000  0.93029000  1.0
  C  C76  1  0.78455000  0.49566000  0.01381000  1.0
  C  C77  1  0.09643000  0.81949000  0.84030000  1.0
  C  C78  1  0.28896000  0.33592000  0.73564000  1.0
  C  C79  1  0.29323000  0.25331000  0.65912000  1.0
  C  C80  1  0.29592000  0.40943000  0.57887000  1.0
  C  C81  1  0.28995000  0.25638000  0.73713000  1.0
  C  C82  1  0.29518000  0.32959000  0.57985000  1.0
  C  C83  1  0.29739000  0.16858000  0.65791000  1.0
  C  C84  1  0.29257000  0.41241000  0.65730000  1.0
  C  C85  1  0.28889000  0.49053000  0.49566000  1.0
  C  C86  1  0.27694000  0.34021000  0.81949000  1.0
  C  C87  1  0.95304000  0.92844000  0.33592000  1.0
  C  C88  1  0.03992000  0.08757000  0.25331000  1.0
  C  C89  1  0.88649000  0.01170000  0.40943000  1.0
  C  C90  1  0.03357000  0.00649000  0.25638000  1.0
  C  C91  1  0.96559000  0.09056000  0.32959000  1.0
  C  C92  1  0.12881000  0.17351000  0.16858000  1.0
  C  C93  1  0.88016000  0.93029000  0.41241000  1.0
  C  C94  1  0.79836000  0.01381000  0.49053000  1.0
  C  C95  1  0.93673000  0.84030000  0.34021000  1.0
  O  O96  1  0.50707000  0.00494000  0.65783000  1.0
  O  O97  1  0.66981000  0.90215000  0.82972000  1.0
  O  O98  1  0.66069000  0.82754000  0.75637000  1.0
  O  O99  1  0.50667000  0.73012000  0.15971000  1.0
  O  O100  1  0.35667000  0.58779000  0.22888000  1.0
  O  O101  1  0.61120000  0.24417000  0.41307000  1.0
  O  O102  1  0.24239000  0.43626000  0.05659000  1.0
  O  O103  1  0.28322000  0.52198000  0.90882000  1.0
  O  O104  1  0.16490000  0.65783000  0.33723000  1.0
  O  O105  1  0.49953000  0.82972000  0.26813000  1.0
  O  O106  1  0.41706000  0.75637000  0.41609000  1.0
  O  O107  1  0.66638000  0.15971000  0.11017000  1.0
  O  O108  1  0.58555000  0.22888000  0.18333000  1.0
  O  O109  1  0.02427000  0.41307000  0.34276000  1.0
  O  O110  1  0.29898000  0.05659000  0.50715000  1.0
  O  O111  1  0.19204000  0.90882000  0.56920000  1.0
  O  O112  1  0.50213000  0.33723000  0.00494000  1.0
  O  O113  1  0.76766000  0.26813000  0.90215000  1.0
  O  O114  1  0.83315000  0.41609000  0.82754000  1.0
  O  O115  1  0.77655000  0.11017000  0.73012000  1.0
  O  O116  1  0.76888000  0.18333000  0.58779000  1.0
  O  O117  1  0.36703000  0.34276000  0.24417000  1.0
  O  O118  1  0.80613000  0.50715000  0.43626000  1.0
  O  O119  1  0.76124000  0.56920000  0.52198000  1.0
  O  O120  1  0.66490000  0.66277000  0.34217000  1.0
  O  O121  1  0.99953000  0.73187000  0.17028000  1.0
  O  O122  1  0.91706000  0.58391000  0.24363000  1.0
  O  O123  1  0.16638000  0.88983000  0.84029000  1.0
  O  O124  1  0.08555000  0.81667000  0.77112000  1.0
  O  O125  1  0.52427000  0.65724000  0.58693000  1.0
  O  O126  1  0.79898000  0.49285000  0.94341000  1.0
  O  O127  1  0.69204000  0.43080000  0.09118000  1.0
  O  O128  1  0.00213000  0.99506000  0.66277000  1.0
  O  O129  1  0.26766000  0.09785000  0.73187000  1.0
  O  O130  1  0.33315000  0.17246000  0.58391000  1.0
  O  O131  1  0.27655000  0.26988000  0.88983000  1.0
  O  O132  1  0.26888000  0.41221000  0.81667000  1.0
  O  O133  1  0.86703000  0.75583000  0.65724000  1.0
  O  O134  1  0.30613000  0.56374000  0.49285000  1.0
  O  O135  1  0.26124000  0.47802000  0.43080000  1.0
  O  O136  1  0.00707000  0.34217000  0.99506000  1.0
  O  O137  1  0.16981000  0.17028000  0.09785000  1.0
  O  O138  1  0.16069000  0.24363000  0.17246000  1.0
  O  O139  1  0.00667000  0.84029000  0.26988000  1.0
  O  O140  1  0.85667000  0.77112000  0.41221000  1.0
  O  O141  1  0.11120000  0.58693000  0.75583000  1.0
  O  O142  1  0.74239000  0.94341000  0.56374000  1.0
  O  O143  1  0.78322000  0.09118000  0.47802000  1.0
