# generated using pymatgen
data_GdH12(C5O2)3
_symmetry_space_group_name_H-M   'P 1'
_cell_length_a   10.11000000
_cell_length_b   21.83500000
_cell_length_c   13.98700000
_cell_angle_alpha   91.62000000
_cell_angle_beta   90.00000000
_cell_angle_gamma   90.00000000
_symmetry_Int_Tables_number   1
_chemical_formula_structural   GdH12(C5O2)3
_chemical_formula_sum   'Gd8 H96 C120 O48'
_cell_volume   3086.42201342
_cell_formula_units_Z   8
loop_
 _symmetry_equiv_pos_site_id
 _symmetry_equiv_pos_as_xyz
  1  'x, y, z'
loop_
 _atom_site_type_symbol
 _atom_site_label
 _atom_site_symmetry_multiplicity
 _atom_site_fract_x
 _atom_site_fract_y
 _atom_site_fract_z
 _atom_site_occupancy
  Gd  Gd0  1  0.43666000  0.75975000  0.76872000  1.0
  Gd  Gd1  1  0.25015000  0.74868000  0.02700000  1.0
  Gd  Gd2  1  0.93666000  0.24025000  0.73128000  1.0
  Gd  Gd3  1  0.75015000  0.25132000  0.47300000  1.0
  Gd  Gd4  1  0.56334000  0.24025000  0.23128000  1.0
  Gd  Gd5  1  0.74985000  0.25132000  0.97300000  1.0
  Gd  Gd6  1  0.06334000  0.75975000  0.26872000  1.0
  Gd  Gd7  1  0.24985000  0.74868000  0.52700000  1.0
  H  H8  1  0.71200000  0.45670000  0.81050000  1.0
  H  H9  1  0.14110000  0.03490000  0.86600000  1.0
  H  H10  1  0.11710000  0.83930000  0.72190000  1.0
  H  H11  1  0.98440000  0.81290000  0.76220000  1.0
  H  H12  1  0.82340000  0.88540000  0.81850000  1.0
  H  H13  1  0.64670000  0.54760000  0.88260000  1.0
  H  H14  1  0.20240000  0.93850000  0.81020000  1.0
  H  H15  1  0.27080000  0.49380000  0.86600000  1.0
  H  H16  1  0.45810000  0.59600000  0.98820000  1.0
  H  H17  1  0.31510000  0.58570000  0.94830000  1.0
  H  H18  1  0.76470000  0.98230000  0.87350000  1.0
  H  H19  1  0.33680000  0.40330000  0.79130000  1.0
  H  H20  1  0.90220000  0.57140000  0.90480000  1.0
  H  H21  1  0.03850000  0.52260000  0.16000000  1.0
  H  H22  1  0.85000000  0.63350000  0.05000000  1.0
  H  H23  1  0.91310000  0.61610000  0.14780000  1.0
  H  H24  1  0.50170000  0.34170000  0.71280000  1.0
  H  H25  1  0.64150000  0.37050000  0.69570000  1.0
  H  H26  1  0.96280000  0.09010000  0.97200000  1.0
  H  H27  1  0.81660000  0.07690000  0.94140000  1.0
  H  H28  1  0.69840000  0.87630000  0.98890000  1.0
  H  H29  1  0.63140000  0.87180000  0.08970000  1.0
  H  H30  1  0.58330000  0.97220000  0.14600000  1.0
  H  H31  1  0.50110000  0.93110000  0.87220000  1.0
  H  H32  1  0.21200000  0.54330000  0.68950000  1.0
  H  H33  1  0.64110000  0.96510000  0.63400000  1.0
  H  H34  1  0.61710000  0.16070000  0.77810000  1.0
  H  H35  1  0.48440000  0.18710000  0.73780000  1.0
  H  H36  1  0.32340000  0.11460000  0.68150000  1.0
  H  H37  1  0.14670000  0.45240000  0.61740000  1.0
  H  H38  1  0.70240000  0.06150000  0.68980000  1.0
  H  H39  1  0.77080000  0.50620000  0.63400000  1.0
  H  H40  1  0.95810000  0.40400000  0.51180000  1.0
  H  H41  1  0.81510000  0.41430000  0.55170000  1.0
  H  H42  1  0.26470000  0.01770000  0.62650000  1.0
  H  H43  1  0.83680000  0.59670000  0.70870000  1.0
  H  H44  1  0.40220000  0.42860000  0.59520000  1.0
  H  H45  1  0.53850000  0.47740000  0.34000000  1.0
  H  H46  1  0.35000000  0.36650000  0.45000000  1.0
  H  H47  1  0.41310000  0.38390000  0.35220000  1.0
  H  H48  1  0.00170000  0.65830000  0.78720000  1.0
  H  H49  1  0.14150000  0.62950000  0.80430000  1.0
  H  H50  1  0.46280000  0.90990000  0.52800000  1.0
  H  H51  1  0.31660000  0.92310000  0.55860000  1.0
  H  H52  1  0.19840000  0.12370000  0.51110000  1.0
  H  H53  1  0.13140000  0.12820000  0.41030000  1.0
  H  H54  1  0.08330000  0.02780000  0.35400000  1.0
  H  H55  1  0.00110000  0.06890000  0.62780000  1.0
  H  H56  1  0.28800000  0.54330000  0.18950000  1.0
  H  H57  1  0.85890000  0.96510000  0.13400000  1.0
  H  H58  1  0.88290000  0.16070000  0.27810000  1.0
  H  H59  1  0.01560000  0.18710000  0.23780000  1.0
  H  H60  1  0.17660000  0.11460000  0.18150000  1.0
  H  H61  1  0.35330000  0.45240000  0.11740000  1.0
  H  H62  1  0.79760000  0.06150000  0.18980000  1.0
  H  H63  1  0.72920000  0.50620000  0.13400000  1.0
  H  H64  1  0.54190000  0.40400000  0.01180000  1.0
  H  H65  1  0.68490000  0.41430000  0.05170000  1.0
  H  H66  1  0.23530000  0.01770000  0.12650000  1.0
  H  H67  1  0.66320000  0.59670000  0.20870000  1.0
  H  H68  1  0.09780000  0.42860000  0.09520000  1.0
  H  H69  1  0.96150000  0.47740000  0.84000000  1.0
  H  H70  1  0.15000000  0.36650000  0.95000000  1.0
  H  H71  1  0.08690000  0.38390000  0.85220000  1.0
  H  H72  1  0.49830000  0.65830000  0.28720000  1.0
  H  H73  1  0.35850000  0.62950000  0.30430000  1.0
  H  H74  1  0.03720000  0.90990000  0.02800000  1.0
  H  H75  1  0.18340000  0.92310000  0.05860000  1.0
  H  H76  1  0.30160000  0.12370000  0.01110000  1.0
  H  H77  1  0.36860000  0.12820000  0.91030000  1.0
  H  H78  1  0.41670000  0.02780000  0.85400000  1.0
  H  H79  1  0.49890000  0.06890000  0.12780000  1.0
  H  H80  1  0.78800000  0.45670000  0.31050000  1.0
  H  H81  1  0.35890000  0.03490000  0.36600000  1.0
  H  H82  1  0.38290000  0.83930000  0.22190000  1.0
  H  H83  1  0.51560000  0.81290000  0.26220000  1.0
  H  H84  1  0.67660000  0.88540000  0.31850000  1.0
  H  H85  1  0.85330000  0.54760000  0.38260000  1.0
  H  H86  1  0.29760000  0.93850000  0.31020000  1.0
  H  H87  1  0.22920000  0.49380000  0.36600000  1.0
  H  H88  1  0.04190000  0.59600000  0.48820000  1.0
  H  H89  1  0.18490000  0.58570000  0.44830000  1.0
  H  H90  1  0.73530000  0.98230000  0.37350000  1.0
  H  H91  1  0.16320000  0.40330000  0.29130000  1.0
  H  H92  1  0.59780000  0.57140000  0.40480000  1.0
  H  H93  1  0.46150000  0.52260000  0.66000000  1.0
  H  H94  1  0.65000000  0.63350000  0.55000000  1.0
  H  H95  1  0.58690000  0.61610000  0.64780000  1.0
  H  H96  1  0.99830000  0.34170000  0.21280000  1.0
  H  H97  1  0.85850000  0.37050000  0.19570000  1.0
  H  H98  1  0.53720000  0.09010000  0.47200000  1.0
  H  H99  1  0.68340000  0.07690000  0.44140000  1.0
  H  H100  1  0.80160000  0.87630000  0.48890000  1.0
  H  H101  1  0.86860000  0.87180000  0.58970000  1.0
  H  H102  1  0.91670000  0.97220000  0.64600000  1.0
  H  H103  1  0.99890000  0.93110000  0.37220000  1.0
  C  C104  1  0.13760000  0.80745000  0.85760000  1.0
  C  C105  1  0.41980000  0.64737000  0.87210000  1.0
  C  C106  1  0.45110000  0.53128000  0.88110000  1.0
  C  C107  1  0.53140000  0.42050000  0.79240000  1.0
  C  C108  1  0.62240000  0.46405000  0.82080000  1.0
  C  C109  1  0.07690000  0.00474000  0.85700000  1.0
  C  C110  1  0.06190000  0.83719000  0.77850000  1.0
  C  C111  1  0.02000000  0.90116000  0.81070000  1.0
  C  C112  1  0.88820000  0.91508000  0.82860000  1.0
  C  C113  1  0.58310000  0.51874000  0.86430000  1.0
  C  C114  1  0.94730000  0.01838000  0.87680000  1.0
  C  C115  1  0.11410000  0.94674000  0.82370000  1.0
  C  C116  1  0.36020000  0.48694000  0.85420000  1.0
  C  C117  1  0.40700000  0.59016000  0.92990000  1.0
  C  C118  1  0.85320000  0.97338000  0.86150000  1.0
  C  C119  1  0.39990000  0.43226000  0.80970000  1.0
  C  C120  1  0.63600000  0.31798000  0.81370000  1.0
  C  C121  1  0.94160000  0.54263000  0.94340000  1.0
  C  C122  1  0.96370000  0.55714000  0.03940000  1.0
  C  C123  1  0.03760000  0.66606000  0.06630000  1.0
  C  C124  1  0.02270000  0.51372000  0.09560000  1.0
  C  C125  1  0.93050000  0.61929000  0.08000000  1.0
  C  C126  1  0.91150000  0.13291000  0.85090000  1.0
  C  C127  1  0.57660000  0.36136000  0.74430000  1.0
  C  C128  1  0.90640000  0.08025000  0.91760000  1.0
  C  C129  1  0.52360000  0.82857000  0.98340000  1.0
  C  C130  1  0.61450000  0.87839000  0.02250000  1.0
  C  C131  1  0.55380000  0.94125000  0.01110000  1.0
  C  C132  1  0.55030000  0.98317000  0.08680000  1.0
  C  C133  1  0.50140000  0.95879000  0.92390000  1.0
  C  C134  1  0.63760000  0.19255000  0.64240000  1.0
  C  C135  1  0.91980000  0.35263000  0.62790000  1.0
  C  C136  1  0.95110000  0.46872000  0.61890000  1.0
  C  C137  1  0.03140000  0.57950000  0.70760000  1.0
  C  C138  1  0.12240000  0.53595000  0.67920000  1.0
  C  C139  1  0.57690000  0.99526000  0.64300000  1.0
  C  C140  1  0.56190000  0.16281000  0.72150000  1.0
  C  C141  1  0.52000000  0.09884000  0.68930000  1.0
  C  C142  1  0.38820000  0.08492000  0.67140000  1.0
  C  C143  1  0.08310000  0.48126000  0.63570000  1.0
  C  C144  1  0.44730000  0.98162000  0.62320000  1.0
  C  C145  1  0.61410000  0.05326000  0.67630000  1.0
  C  C146  1  0.86020000  0.51306000  0.64580000  1.0
  C  C147  1  0.90700000  0.40984000  0.57010000  1.0
  C  C148  1  0.35320000  0.02662000  0.63850000  1.0
  C  C149  1  0.89990000  0.56774000  0.69030000  1.0
  C  C150  1  0.13600000  0.68202000  0.68630000  1.0
  C  C151  1  0.44160000  0.45737000  0.55660000  1.0
  C  C152  1  0.46370000  0.44286000  0.46060000  1.0
  C  C153  1  0.53760000  0.33394000  0.43370000  1.0
  C  C154  1  0.52270000  0.48628000  0.40440000  1.0
  C  C155  1  0.43050000  0.38071000  0.42000000  1.0
  C  C156  1  0.41150000  0.86709000  0.64910000  1.0
  C  C157  1  0.07660000  0.63864000  0.75570000  1.0
  C  C158  1  0.40640000  0.91975000  0.58240000  1.0
  C  C159  1  0.02360000  0.17143000  0.51660000  1.0
  C  C160  1  0.11450000  0.12161000  0.47750000  1.0
  C  C161  1  0.05380000  0.05875000  0.48890000  1.0
  C  C162  1  0.05030000  0.01683000  0.41320000  1.0
  C  C163  1  0.00140000  0.04121000  0.57610000  1.0
  C  C164  1  0.86240000  0.19255000  0.14240000  1.0
  C  C165  1  0.58020000  0.35263000  0.12790000  1.0
  C  C166  1  0.54890000  0.46872000  0.11890000  1.0
  C  C167  1  0.46860000  0.57950000  0.20760000  1.0
  C  C168  1  0.37760000  0.53595000  0.17920000  1.0
  C  C169  1  0.92310000  0.99526000  0.14300000  1.0
  C  C170  1  0.93810000  0.16281000  0.22150000  1.0
  C  C171  1  0.98000000  0.09884000  0.18930000  1.0
  C  C172  1  0.11180000  0.08492000  0.17140000  1.0
  C  C173  1  0.41690000  0.48126000  0.13570000  1.0
  C  C174  1  0.05270000  0.98162000  0.12320000  1.0
  C  C175  1  0.88590000  0.05326000  0.17630000  1.0
  C  C176  1  0.63980000  0.51306000  0.14580000  1.0
  C  C177  1  0.59300000  0.40984000  0.07010000  1.0
  C  C178  1  0.14680000  0.02662000  0.13850000  1.0
  C  C179  1  0.60010000  0.56774000  0.19030000  1.0
  C  C180  1  0.36400000  0.68202000  0.18630000  1.0
  C  C181  1  0.05840000  0.45737000  0.05660000  1.0
  C  C182  1  0.03630000  0.44286000  0.96060000  1.0
  C  C183  1  0.96240000  0.33394000  0.93370000  1.0
  C  C184  1  0.97730000  0.48628000  0.90440000  1.0
  C  C185  1  0.06950000  0.38071000  0.92000000  1.0
  C  C186  1  0.08850000  0.86709000  0.14910000  1.0
  C  C187  1  0.42340000  0.63864000  0.25570000  1.0
  C  C188  1  0.09360000  0.91975000  0.08240000  1.0
  C  C189  1  0.47640000  0.17143000  0.01660000  1.0
  C  C190  1  0.38550000  0.12161000  0.97750000  1.0
  C  C191  1  0.44620000  0.05875000  0.98890000  1.0
  C  C192  1  0.44970000  0.01683000  0.91320000  1.0
  C  C193  1  0.49860000  0.04121000  0.07610000  1.0
  C  C194  1  0.36240000  0.80745000  0.35760000  1.0
  C  C195  1  0.08020000  0.64737000  0.37210000  1.0
  C  C196  1  0.04890000  0.53128000  0.38110000  1.0
  C  C197  1  0.96860000  0.42050000  0.29240000  1.0
  C  C198  1  0.87760000  0.46405000  0.32080000  1.0
  C  C199  1  0.42310000  0.00474000  0.35700000  1.0
  C  C200  1  0.43810000  0.83719000  0.27850000  1.0
  C  C201  1  0.48000000  0.90116000  0.31070000  1.0
  C  C202  1  0.61180000  0.91508000  0.32860000  1.0
  C  C203  1  0.91690000  0.51874000  0.36430000  1.0
  C  C204  1  0.55270000  0.01838000  0.37680000  1.0
  C  C205  1  0.38590000  0.94674000  0.32370000  1.0
  C  C206  1  0.13980000  0.48694000  0.35420000  1.0
  C  C207  1  0.09300000  0.59016000  0.42990000  1.0
  C  C208  1  0.64680000  0.97338000  0.36150000  1.0
  C  C209  1  0.10010000  0.43226000  0.30970000  1.0
  C  C210  1  0.86400000  0.31798000  0.31370000  1.0
  C  C211  1  0.55840000  0.54263000  0.44340000  1.0
  C  C212  1  0.53630000  0.55714000  0.53940000  1.0
  C  C213  1  0.46240000  0.66606000  0.56630000  1.0
  C  C214  1  0.47730000  0.51372000  0.59560000  1.0
  C  C215  1  0.56950000  0.61929000  0.58000000  1.0
  C  C216  1  0.58850000  0.13291000  0.35090000  1.0
  C  C217  1  0.92340000  0.36136000  0.24430000  1.0
  C  C218  1  0.59360000  0.08025000  0.41760000  1.0
  C  C219  1  0.97640000  0.82857000  0.48340000  1.0
  C  C220  1  0.88550000  0.87839000  0.52250000  1.0
  C  C221  1  0.94620000  0.94125000  0.51110000  1.0
  C  C222  1  0.94970000  0.98317000  0.58680000  1.0
  C  C223  1  0.99860000  0.95879000  0.42390000  1.0
  O  O224  1  0.36530000  0.69650000  0.90364000  1.0
  O  O225  1  0.07420000  0.78200000  0.92303000  1.0
  O  O226  1  0.83100000  0.17645000  0.86525000  1.0
  O  O227  1  0.43100000  0.81232000  0.03584000  1.0
  O  O228  1  0.02920000  0.71795000  0.10936000  1.0
  O  O229  1  0.13310000  0.65420000  0.01343000  1.0
  O  O230  1  0.99160000  0.13555000  0.78388000  1.0
  O  O231  1  0.48130000  0.64909000  0.79604000  1.0
  O  O232  1  0.58470000  0.31338000  0.89450000  1.0
  O  O233  1  0.26140000  0.80914000  0.86121000  1.0
  O  O234  1  0.54570000  0.80676000  0.90134000  1.0
  O  O235  1  0.73520000  0.28524000  0.79292000  1.0
  O  O236  1  0.86530000  0.30350000  0.59636000  1.0
  O  O237  1  0.57420000  0.21800000  0.57697000  1.0
  O  O238  1  0.33100000  0.82355000  0.63475000  1.0
  O  O239  1  0.93100000  0.18768000  0.46416000  1.0
  O  O240  1  0.52920000  0.28205000  0.39064000  1.0
  O  O241  1  0.63310000  0.34580000  0.48657000  1.0
  O  O242  1  0.49160000  0.86445000  0.71612000  1.0
  O  O243  1  0.98130000  0.35091000  0.70396000  1.0
  O  O244  1  0.08470000  0.68662000  0.60550000  1.0
  O  O245  1  0.76140000  0.19086000  0.63879000  1.0
  O  O246  1  0.04570000  0.19324000  0.59866000  1.0
  O  O247  1  0.23520000  0.71476000  0.70708000  1.0
  O  O248  1  0.63470000  0.30350000  0.09636000  1.0
  O  O249  1  0.92580000  0.21800000  0.07697000  1.0
  O  O250  1  0.16900000  0.82355000  0.13475000  1.0
  O  O251  1  0.56900000  0.18768000  0.96416000  1.0
  O  O252  1  0.97080000  0.28205000  0.89064000  1.0
  O  O253  1  0.86690000  0.34580000  0.98657000  1.0
  O  O254  1  0.00840000  0.86445000  0.21612000  1.0
  O  O255  1  0.51870000  0.35091000  0.20396000  1.0
  O  O256  1  0.41530000  0.68662000  0.10550000  1.0
  O  O257  1  0.73860000  0.19086000  0.13879000  1.0
  O  O258  1  0.45430000  0.19324000  0.09866000  1.0
  O  O259  1  0.26480000  0.71476000  0.20708000  1.0
  O  O260  1  0.13470000  0.69650000  0.40364000  1.0
  O  O261  1  0.42580000  0.78200000  0.42303000  1.0
  O  O262  1  0.66900000  0.17645000  0.36525000  1.0
  O  O263  1  0.06900000  0.81232000  0.53584000  1.0
  O  O264  1  0.47080000  0.71795000  0.60936000  1.0
  O  O265  1  0.36690000  0.65420000  0.51343000  1.0
  O  O266  1  0.50840000  0.13555000  0.28388000  1.0
  O  O267  1  0.01870000  0.64909000  0.29604000  1.0
  O  O268  1  0.91530000  0.31338000  0.39450000  1.0
  O  O269  1  0.23860000  0.80914000  0.36121000  1.0
  O  O270  1  0.95430000  0.80676000  0.40134000  1.0
  O  O271  1  0.76480000  0.28524000  0.29292000  1.0
