# generated using pymatgen
data_UZnH8C10(NF2)2
_symmetry_space_group_name_H-M   'P 1'
_cell_length_a   9.46300000
_cell_length_b   16.75340000
_cell_length_c   22.38360000
_cell_angle_alpha   90.00000000
_cell_angle_beta   90.00000000
_cell_angle_gamma   91.89900000
_symmetry_Int_Tables_number   1
_chemical_formula_structural   UZnH8C10(NF2)2
_chemical_formula_sum   'U8 Zn8 H64 C80 N16 F32'
_cell_volume   3546.68935650
_cell_formula_units_Z   8
loop_
 _symmetry_equiv_pos_site_id
 _symmetry_equiv_pos_as_xyz
  1  'x, y, z'
loop_
 _atom_site_type_symbol
 _atom_site_label
 _atom_site_symmetry_multiplicity
 _atom_site_fract_x
 _atom_site_fract_y
 _atom_site_fract_z
 _atom_site_occupancy
  U  U0  1  0.54298000  0.13558000  0.25189000  1.0
  U  U1  1  0.90573000  0.26493000  0.25392000  1.0
  U  U2  1  0.45702000  0.36442000  0.75189000  1.0
  U  U3  1  0.09427000  0.23507000  0.75392000  1.0
  U  U4  1  0.45702000  0.86442000  0.74811000  1.0
  U  U5  1  0.09427000  0.73507000  0.74608000  1.0
  U  U6  1  0.54298000  0.63558000  0.24811000  1.0
  U  U7  1  0.90573000  0.76493000  0.24608000  1.0
  Zn  Zn8  1  0.84113000  0.00546000  0.25405000  1.0
  Zn  Zn9  1  0.22604000  0.94958000  0.24631000  1.0
  Zn  Zn10  1  0.15887000  0.49454000  0.75405000  1.0
  Zn  Zn11  1  0.77396000  0.55042000  0.74631000  1.0
  Zn  Zn12  1  0.15887000  0.99454000  0.74595000  1.0
  Zn  Zn13  1  0.77396000  0.05042000  0.75369000  1.0
  Zn  Zn14  1  0.84113000  0.50546000  0.24595000  1.0
  Zn  Zn15  1  0.22604000  0.44958000  0.25369000  1.0
  H  H16  1  0.97450000  0.09030000  0.15030000  1.0
  H  H17  1  0.95290000  0.10480000  0.04900000  1.0
  H  H18  1  0.66440000  0.93090000  0.15340000  1.0
  H  H19  1  0.63090000  0.94280000  0.05290000  1.0
  H  H20  1  0.86020000  0.14420000  0.96430000  1.0
  H  H21  1  0.85440000  0.15030000  0.86260000  1.0
  H  H22  1  0.69020000  0.92290000  0.95470000  1.0
  H  H23  1  0.69510000  0.93360000  0.85320000  1.0
  H  H24  1  0.95200000  0.11060000  0.35430000  1.0
  H  H25  1  0.92720000  0.13020000  0.45490000  1.0
  H  H26  1  0.69660000  0.92360000  0.35890000  1.0
  H  H27  1  0.66650000  0.93660000  0.45970000  1.0
  H  H28  1  0.97510000  0.09760000  0.54870000  1.0
  H  H29  1  0.96030000  0.10410000  0.65070000  1.0
  H  H30  1  0.58490000  0.99680000  0.54710000  1.0
  H  H31  1  0.57970000  0.00840000  0.64860000  1.0
  H  H32  1  0.02550000  0.40970000  0.65030000  1.0
  H  H33  1  0.04710000  0.39520000  0.54900000  1.0
  H  H34  1  0.33560000  0.56910000  0.65340000  1.0
  H  H35  1  0.36910000  0.55720000  0.55290000  1.0
  H  H36  1  0.13980000  0.35580000  0.46430000  1.0
  H  H37  1  0.14560000  0.34970000  0.36260000  1.0
  H  H38  1  0.30980000  0.57710000  0.45470000  1.0
  H  H39  1  0.30490000  0.56640000  0.35320000  1.0
  H  H40  1  0.04800000  0.38940000  0.85430000  1.0
  H  H41  1  0.07280000  0.36980000  0.95490000  1.0
  H  H42  1  0.30340000  0.57640000  0.85890000  1.0
  H  H43  1  0.33350000  0.56340000  0.95970000  1.0
  H  H44  1  0.02490000  0.40240000  0.04870000  1.0
  H  H45  1  0.03970000  0.39590000  0.15070000  1.0
  H  H46  1  0.41510000  0.50320000  0.04710000  1.0
  H  H47  1  0.42030000  0.49160000  0.14860000  1.0
  H  H48  1  0.02550000  0.90970000  0.84970000  1.0
  H  H49  1  0.04710000  0.89520000  0.95100000  1.0
  H  H50  1  0.33560000  0.06910000  0.84660000  1.0
  H  H51  1  0.36910000  0.05720000  0.94710000  1.0
  H  H52  1  0.13980000  0.85580000  0.03570000  1.0
  H  H53  1  0.14560000  0.84970000  0.13740000  1.0
  H  H54  1  0.30980000  0.07710000  0.04530000  1.0
  H  H55  1  0.30490000  0.06640000  0.14680000  1.0
  H  H56  1  0.04800000  0.88940000  0.64570000  1.0
  H  H57  1  0.07280000  0.86980000  0.54510000  1.0
  H  H58  1  0.30340000  0.07640000  0.64110000  1.0
  H  H59  1  0.33350000  0.06340000  0.54030000  1.0
  H  H60  1  0.02490000  0.90240000  0.45130000  1.0
  H  H61  1  0.03970000  0.89590000  0.34930000  1.0
  H  H62  1  0.41510000  0.00320000  0.45290000  1.0
  H  H63  1  0.42030000  0.99160000  0.35140000  1.0
  H  H64  1  0.97450000  0.59030000  0.34970000  1.0
  H  H65  1  0.95290000  0.60480000  0.45100000  1.0
  H  H66  1  0.66440000  0.43090000  0.34660000  1.0
  H  H67  1  0.63090000  0.44280000  0.44710000  1.0
  H  H68  1  0.86020000  0.64420000  0.53570000  1.0
  H  H69  1  0.85440000  0.65030000  0.63740000  1.0
  H  H70  1  0.69020000  0.42290000  0.54530000  1.0
  H  H71  1  0.69510000  0.43360000  0.64680000  1.0
  H  H72  1  0.95200000  0.61060000  0.14570000  1.0
  H  H73  1  0.92720000  0.63020000  0.04510000  1.0
  H  H74  1  0.69660000  0.42360000  0.14110000  1.0
  H  H75  1  0.66650000  0.43660000  0.04030000  1.0
  H  H76  1  0.97510000  0.59760000  0.95130000  1.0
  H  H77  1  0.96030000  0.60410000  0.84930000  1.0
  H  H78  1  0.58490000  0.49680000  0.95290000  1.0
  H  H79  1  0.57970000  0.50840000  0.85140000  1.0
  C  C80  1  0.90540000  0.06005000  0.13020000  1.0
  C  C81  1  0.89300000  0.06906000  0.06937000  1.0
  C  C82  1  0.72250000  0.96650000  0.13198000  1.0
  C  C83  1  0.70250000  0.97278000  0.07165000  1.0
  C  C84  1  0.79010000  0.02435000  0.03843000  1.0
  C  C85  1  0.77900000  0.03201000  0.97239000  1.0
  C  C86  1  0.82610000  0.10028000  0.94264000  1.0
  C  C87  1  0.82290000  0.10354000  0.88143000  1.0
  C  C88  1  0.72660000  0.96945000  0.93698000  1.0
  C  C89  1  0.72860000  0.97664000  0.87599000  1.0
  C  C90  1  0.89360000  0.07532000  0.37587000  1.0
  C  C91  1  0.87970000  0.08745000  0.43638000  1.0
  C  C92  1  0.74400000  0.96539000  0.37863000  1.0
  C  C93  1  0.72500000  0.97294000  0.43921000  1.0
  C  C94  1  0.79360000  0.03506000  0.46968000  1.0
  C  C95  1  0.78240000  0.04456000  0.53543000  1.0
  C  C96  1  0.89420000  0.07798000  0.56809000  1.0
  C  C97  1  0.88420000  0.08189000  0.62942000  1.0
  C  C98  1  0.66300000  0.01865000  0.56719000  1.0
  C  C99  1  0.66090000  0.02541000  0.62818000  1.0
  C  C100  1  0.09460000  0.43995000  0.63020000  1.0
  C  C101  1  0.10700000  0.43094000  0.56937000  1.0
  C  C102  1  0.27750000  0.53350000  0.63198000  1.0
  C  C103  1  0.29750000  0.52722000  0.57165000  1.0
  C  C104  1  0.20990000  0.47565000  0.53843000  1.0
  C  C105  1  0.22100000  0.46799000  0.47239000  1.0
  C  C106  1  0.17390000  0.39972000  0.44264000  1.0
  C  C107  1  0.17710000  0.39646000  0.38143000  1.0
  C  C108  1  0.27340000  0.53055000  0.43698000  1.0
  C  C109  1  0.27140000  0.52336000  0.37599000  1.0
  C  C110  1  0.10640000  0.42468000  0.87587000  1.0
  C  C111  1  0.12030000  0.41255000  0.93638000  1.0
  C  C112  1  0.25600000  0.53461000  0.87863000  1.0
  C  C113  1  0.27500000  0.52706000  0.93921000  1.0
  C  C114  1  0.20640000  0.46494000  0.96968000  1.0
  C  C115  1  0.21760000  0.45544000  0.03543000  1.0
  C  C116  1  0.10580000  0.42202000  0.06809000  1.0
  C  C117  1  0.11580000  0.41811000  0.12942000  1.0
  C  C118  1  0.33700000  0.48135000  0.06719000  1.0
  C  C119  1  0.33910000  0.47459000  0.12818000  1.0
  C  C120  1  0.09460000  0.93995000  0.86980000  1.0
  C  C121  1  0.10700000  0.93094000  0.93063000  1.0
  C  C122  1  0.27750000  0.03350000  0.86802000  1.0
  C  C123  1  0.29750000  0.02722000  0.92835000  1.0
  C  C124  1  0.20990000  0.97565000  0.96157000  1.0
  C  C125  1  0.22100000  0.96799000  0.02761000  1.0
  C  C126  1  0.17390000  0.89972000  0.05736000  1.0
  C  C127  1  0.17710000  0.89646000  0.11857000  1.0
  C  C128  1  0.27340000  0.03055000  0.06302000  1.0
  C  C129  1  0.27140000  0.02336000  0.12401000  1.0
  C  C130  1  0.10640000  0.92468000  0.62413000  1.0
  C  C131  1  0.12030000  0.91255000  0.56362000  1.0
  C  C132  1  0.25600000  0.03461000  0.62137000  1.0
  C  C133  1  0.27500000  0.02706000  0.56079000  1.0
  C  C134  1  0.20640000  0.96494000  0.53032000  1.0
  C  C135  1  0.21760000  0.95544000  0.46457000  1.0
  C  C136  1  0.10580000  0.92202000  0.43191000  1.0
  C  C137  1  0.11580000  0.91811000  0.37058000  1.0
  C  C138  1  0.33700000  0.98135000  0.43281000  1.0
  C  C139  1  0.33910000  0.97459000  0.37182000  1.0
  C  C140  1  0.90540000  0.56005000  0.36980000  1.0
  C  C141  1  0.89300000  0.56906000  0.43063000  1.0
  C  C142  1  0.72250000  0.46650000  0.36802000  1.0
  C  C143  1  0.70250000  0.47278000  0.42835000  1.0
  C  C144  1  0.79010000  0.52435000  0.46157000  1.0
  C  C145  1  0.77900000  0.53201000  0.52761000  1.0
  C  C146  1  0.82610000  0.60028000  0.55736000  1.0
  C  C147  1  0.82290000  0.60354000  0.61857000  1.0
  C  C148  1  0.72660000  0.46945000  0.56302000  1.0
  C  C149  1  0.72860000  0.47664000  0.62401000  1.0
  C  C150  1  0.89360000  0.57532000  0.12413000  1.0
  C  C151  1  0.87970000  0.58745000  0.06362000  1.0
  C  C152  1  0.74400000  0.46539000  0.12137000  1.0
  C  C153  1  0.72500000  0.47294000  0.06079000  1.0
  C  C154  1  0.79360000  0.53506000  0.03032000  1.0
  C  C155  1  0.78240000  0.54456000  0.96457000  1.0
  C  C156  1  0.89420000  0.57798000  0.93191000  1.0
  C  C157  1  0.88420000  0.58189000  0.87058000  1.0
  C  C158  1  0.66300000  0.51865000  0.93281000  1.0
  C  C159  1  0.66090000  0.52541000  0.87182000  1.0
  N  N160  1  0.82200000  0.00943000  0.16172000  1.0
  N  N161  1  0.77630000  0.04236000  0.84763000  1.0
  N  N162  1  0.82750000  0.01542000  0.34654000  1.0
  N  N163  1  0.77080000  0.05542000  0.65988000  1.0
  N  N164  1  0.17800000  0.49057000  0.66172000  1.0
  N  N165  1  0.22370000  0.45764000  0.34763000  1.0
  N  N166  1  0.17250000  0.48458000  0.84654000  1.0
  N  N167  1  0.22920000  0.44458000  0.15988000  1.0
  N  N168  1  0.17800000  0.99057000  0.83828000  1.0
  N  N169  1  0.22370000  0.95764000  0.15237000  1.0
  N  N170  1  0.17250000  0.98458000  0.65346000  1.0
  N  N171  1  0.22920000  0.94458000  0.34012000  1.0
  N  N172  1  0.82200000  0.50943000  0.33828000  1.0
  N  N173  1  0.77630000  0.54236000  0.65237000  1.0
  N  N174  1  0.82750000  0.51542000  0.15346000  1.0
  N  N175  1  0.77080000  0.55542000  0.84012000  1.0
  F  F176  1  0.66016000  0.25826000  0.24943000  1.0
  F  F177  1  0.34523000  0.05660000  0.25125000  1.0
  F  F178  1  0.61807000  0.00711000  0.25616000  1.0
  F  F179  1  0.80602000  0.13317000  0.25452000  1.0
  F  F180  1  0.37049000  0.22418000  0.24765000  1.0
  F  F181  1  0.10487000  0.34305000  0.25561000  1.0
  F  F182  1  0.82802000  0.38775000  0.24166000  1.0
  F  F183  1  0.05136000  0.02158000  0.25234000  1.0
  F  F184  1  0.33984000  0.24174000  0.74943000  1.0
  F  F185  1  0.65477000  0.44340000  0.75125000  1.0
  F  F186  1  0.38193000  0.49289000  0.75616000  1.0
  F  F187  1  0.19398000  0.36683000  0.75452000  1.0
  F  F188  1  0.62951000  0.27582000  0.74765000  1.0
  F  F189  1  0.89513000  0.15695000  0.75561000  1.0
  F  F190  1  0.17198000  0.11225000  0.74166000  1.0
  F  F191  1  0.94864000  0.47842000  0.75234000  1.0
  F  F192  1  0.33984000  0.74174000  0.75057000  1.0
  F  F193  1  0.65477000  0.94340000  0.74875000  1.0
  F  F194  1  0.38193000  0.99289000  0.74384000  1.0
  F  F195  1  0.19398000  0.86683000  0.74548000  1.0
  F  F196  1  0.62951000  0.77582000  0.75235000  1.0
  F  F197  1  0.89513000  0.65695000  0.74439000  1.0
  F  F198  1  0.17198000  0.61225000  0.75834000  1.0
  F  F199  1  0.94864000  0.97842000  0.74766000  1.0
  F  F200  1  0.66016000  0.75826000  0.25057000  1.0
  F  F201  1  0.34523000  0.55660000  0.24875000  1.0
  F  F202  1  0.61807000  0.50711000  0.24384000  1.0
  F  F203  1  0.80602000  0.63317000  0.24548000  1.0
  F  F204  1  0.37049000  0.72418000  0.25235000  1.0
  F  F205  1  0.10487000  0.84305000  0.24439000  1.0
  F  F206  1  0.82802000  0.88775000  0.25834000  1.0
  F  F207  1  0.05136000  0.52158000  0.24766000  1.0
