# generated using pymatgen
data_V2CoH10C12N2O5
_symmetry_space_group_name_H-M   'P 1'
_cell_length_a   7.77450000
_cell_length_b   11.46350000
_cell_length_c   13.53770000
_cell_angle_alpha   96.80300000
_cell_angle_beta   105.71000000
_cell_angle_gamma   99.22500000
_symmetry_Int_Tables_number   1
_chemical_formula_structural   V2CoH10C12N2O5
_chemical_formula_sum   'V4 Co2 H20 C24 N4 O10'
_cell_volume   1129.67212229
_cell_formula_units_Z   2
loop_
 _symmetry_equiv_pos_site_id
 _symmetry_equiv_pos_as_xyz
  1  'x, y, z'
loop_
 _atom_site_type_symbol
 _atom_site_label
 _atom_site_symmetry_multiplicity
 _atom_site_fract_x
 _atom_site_fract_y
 _atom_site_fract_z
 _atom_site_occupancy
  V  V0  1  0.85757000  0.67661000  0.97477000  1.0
  V  V1  1  0.79445000  0.41953000  0.86044000  1.0
  V  V2  1  0.14243000  0.32339000  0.02523000  1.0
  V  V3  1  0.20555000  0.58047000  0.13956000  1.0
  Co  Co4  1  0.50000000  0.50000000  0.00000000  1.0
  Co  Co5  1  0.00000000  0.00000000  0.00000000  1.0
  H  H6  1  0.07810000  0.86390000  0.81840000  1.0
  H  H7  1  0.08200000  0.87360000  0.65130000  1.0
  H  H8  1  0.87290000  0.17070000  0.66760000  1.0
  H  H9  1  0.86870000  0.14880000  0.83350000  1.0
  H  H10  1  0.94920000  0.10770000  0.51050000  1.0
  H  H11  1  0.66330000  0.65570000  0.21730000  1.0
  H  H12  1  0.81950000  0.64200000  0.38660000  1.0
  H  H13  1  0.91360000  0.32750000  0.27340000  1.0
  H  H14  1  0.73080000  0.34100000  0.11360000  1.0
  H  H15  1  0.05910000  0.40570000  0.45730000  1.0
  H  H16  1  0.92190000  0.13610000  0.18160000  1.0
  H  H17  1  0.91800000  0.12640000  0.34870000  1.0
  H  H18  1  0.12710000  0.82930000  0.33240000  1.0
  H  H19  1  0.13130000  0.85120000  0.16650000  1.0
  H  H20  1  0.05080000  0.89230000  0.48950000  1.0
  H  H21  1  0.33670000  0.34430000  0.78270000  1.0
  H  H22  1  0.18050000  0.35800000  0.61340000  1.0
  H  H23  1  0.08640000  0.67250000  0.72660000  1.0
  H  H24  1  0.26920000  0.65900000  0.88640000  1.0
  H  H25  1  0.94090000  0.59430000  0.54270000  1.0
  C  C26  1  0.03610000  0.92622000  0.78735000  1.0
  C  C27  1  0.03930000  0.93157000  0.68690000  1.0
  C  C28  1  0.97810000  0.02451000  0.63882000  1.0
  C  C29  1  0.91470000  0.10696000  0.69623000  1.0
  C  C30  1  0.91420000  0.09375000  0.79664000  1.0
  C  C31  1  0.97980000  0.03820000  0.53305000  1.0
  C  C32  1  0.70910000  0.58707000  0.23002000  1.0
  C  C33  1  0.80740000  0.58070000  0.33220000  1.0
  C  C34  1  0.88680000  0.48160000  0.35140000  1.0
  C  C35  1  0.85910000  0.39370000  0.26550000  1.0
  C  C36  1  0.75150000  0.40360000  0.16850000  1.0
  C  C37  1  0.99370000  0.46700000  0.45466000  1.0
  C  C38  1  0.96390000  0.07378000  0.21265000  1.0
  C  C39  1  0.96070000  0.06843000  0.31310000  1.0
  C  C40  1  0.02190000  0.97549000  0.36118000  1.0
  C  C41  1  0.08530000  0.89304000  0.30377000  1.0
  C  C42  1  0.08580000  0.90625000  0.20336000  1.0
  C  C43  1  0.02020000  0.96180000  0.46695000  1.0
  C  C44  1  0.29090000  0.41293000  0.76998000  1.0
  C  C45  1  0.19260000  0.41930000  0.66780000  1.0
  C  C46  1  0.11320000  0.51840000  0.64860000  1.0
  C  C47  1  0.14090000  0.60630000  0.73450000  1.0
  C  C48  1  0.24850000  0.59640000  0.83150000  1.0
  C  C49  1  0.00630000  0.53300000  0.54534000  1.0
  N  N50  1  0.97560000  0.00610000  0.84259000  1.0
  N  N51  1  0.67610000  0.49765000  0.14954000  1.0
  N  N52  1  0.02440000  0.99390000  0.15741000  1.0
  N  N53  1  0.32390000  0.50235000  0.85046000  1.0
  O  O54  1  0.65409000  0.40366000  0.93261000  1.0
  O  O55  1  0.65056000  0.66348000  0.98979000  1.0
  O  O56  1  0.00154000  0.63258000  0.08305000  1.0
  O  O57  1  0.93805000  0.81564000  0.96682000  1.0
  O  O58  1  0.84735000  0.57848000  0.85880000  1.0
  O  O59  1  0.34591000  0.59634000  0.06739000  1.0
  O  O60  1  0.34944000  0.33652000  0.01021000  1.0
  O  O61  1  0.99846000  0.36742000  0.91695000  1.0
  O  O62  1  0.06195000  0.18436000  0.03318000  1.0
  O  O63  1  0.15265000  0.42152000  0.14120000  1.0
