# generated using pymatgen
data_CoMo5H10C12(N5O6)2
_symmetry_space_group_name_H-M   'P 1'
_cell_length_a   30.90700000
_cell_length_b   11.14470000
_cell_length_c   7.43490000
_cell_angle_alpha   90.00000000
_cell_angle_beta   92.63000000
_cell_angle_gamma   90.00000000
_symmetry_Int_Tables_number   1
_chemical_formula_structural   CoMo5H10C12(N5O6)2
_chemical_formula_sum   'Co4 Mo20 H40 C48 N40 O48'
_cell_volume   2558.24818291
_cell_formula_units_Z   4
loop_
 _symmetry_equiv_pos_site_id
 _symmetry_equiv_pos_as_xyz
  1  'x, y, z'
loop_
 _atom_site_type_symbol
 _atom_site_label
 _atom_site_symmetry_multiplicity
 _atom_site_fract_x
 _atom_site_fract_y
 _atom_site_fract_z
 _atom_site_occupancy
  Co  Co0  1  0.75000000  0.25000000  0.00000000  1.0
  Co  Co1  1  0.25000000  0.25000000  0.50000000  1.0
  Co  Co2  1  0.25000000  0.75000000  0.00000000  1.0
  Co  Co3  1  0.75000000  0.75000000  0.50000000  1.0
  Mo  Mo4  1  0.79131000  0.98501000  0.82655000  1.0
  Mo  Mo5  1  0.90937000  0.97686000  0.76878000  1.0
  Mo  Mo6  1  0.29131000  0.48501000  0.82655000  1.0
  Mo  Mo7  1  0.40937000  0.47686000  0.76878000  1.0
  Mo  Mo8  1  0.20869000  0.98501000  0.67345000  1.0
  Mo  Mo9  1  0.09063000  0.97686000  0.73122000  1.0
  Mo  Mo10  1  0.70869000  0.48501000  0.67345000  1.0
  Mo  Mo11  1  0.59063000  0.47686000  0.73122000  1.0
  Mo  Mo12  1  0.20869000  0.01499000  0.17345000  1.0
  Mo  Mo13  1  0.09063000  0.02314000  0.23122000  1.0
  Mo  Mo14  1  0.70869000  0.51499000  0.17345000  1.0
  Mo  Mo15  1  0.59063000  0.52314000  0.23122000  1.0
  Mo  Mo16  1  0.79131000  0.01499000  0.32655000  1.0
  Mo  Mo17  1  0.90937000  0.02314000  0.26878000  1.0
  Mo  Mo18  1  0.29131000  0.51499000  0.32655000  1.0
  Mo  Mo19  1  0.40937000  0.52314000  0.26878000  1.0
  Mo  Mo20  1  0.00000000  0.16931000  0.75000000  1.0
  Mo  Mo21  1  0.50000000  0.66931000  0.75000000  1.0
  Mo  Mo22  1  0.00000000  0.83069000  0.25000000  1.0
  Mo  Mo23  1  0.50000000  0.33069000  0.25000000  1.0
  H  H24  1  0.91550000  0.29270000  0.88740000  1.0
  H  H25  1  0.92030000  0.46640000  0.01140000  1.0
  H  H26  1  0.86410000  0.78510000  0.00300000  1.0
  H  H27  1  0.79720000  0.69950000  0.95150000  1.0
  H  H28  1  0.79220000  0.49060000  0.92510000  1.0
  H  H29  1  0.41550000  0.79270000  0.88740000  1.0
  H  H30  1  0.42030000  0.96640000  0.01140000  1.0
  H  H31  1  0.36410000  0.28510000  0.00300000  1.0
  H  H32  1  0.29720000  0.19950000  0.95150000  1.0
  H  H33  1  0.29220000  0.99060000  0.92510000  1.0
  H  H34  1  0.08450000  0.29270000  0.61260000  1.0
  H  H35  1  0.07970000  0.46640000  0.48860000  1.0
  H  H36  1  0.13590000  0.78510000  0.49700000  1.0
  H  H37  1  0.20280000  0.69950000  0.54850000  1.0
  H  H38  1  0.20780000  0.49060000  0.57490000  1.0
  H  H39  1  0.58450000  0.79270000  0.61260000  1.0
  H  H40  1  0.57970000  0.96640000  0.48860000  1.0
  H  H41  1  0.63590000  0.28510000  0.49700000  1.0
  H  H42  1  0.70280000  0.19950000  0.54850000  1.0
  H  H43  1  0.70780000  0.99060000  0.57490000  1.0
  H  H44  1  0.08450000  0.70730000  0.11260000  1.0
  H  H45  1  0.07970000  0.53360000  0.98860000  1.0
  H  H46  1  0.13590000  0.21490000  0.99700000  1.0
  H  H47  1  0.20280000  0.30050000  0.04850000  1.0
  H  H48  1  0.20780000  0.50940000  0.07490000  1.0
  H  H49  1  0.58450000  0.20730000  0.11260000  1.0
  H  H50  1  0.57970000  0.03360000  0.98860000  1.0
  H  H51  1  0.63590000  0.71490000  0.99700000  1.0
  H  H52  1  0.70280000  0.80050000  0.04850000  1.0
  H  H53  1  0.70780000  0.00940000  0.07490000  1.0
  H  H54  1  0.91550000  0.70730000  0.38740000  1.0
  H  H55  1  0.92030000  0.53360000  0.51140000  1.0
  H  H56  1  0.86410000  0.21490000  0.50300000  1.0
  H  H57  1  0.79720000  0.30050000  0.45150000  1.0
  H  H58  1  0.79220000  0.50940000  0.42510000  1.0
  H  H59  1  0.41550000  0.20730000  0.38740000  1.0
  H  H60  1  0.42030000  0.03360000  0.51140000  1.0
  H  H61  1  0.36410000  0.71490000  0.50300000  1.0
  H  H62  1  0.29720000  0.80050000  0.45150000  1.0
  H  H63  1  0.29220000  0.00940000  0.42510000  1.0
  C  C64  1  0.85560000  0.45800000  0.96530000  1.0
  C  C65  1  0.89527000  0.51230000  0.99740000  1.0
  C  C66  1  0.86158000  0.70220000  0.99280000  1.0
  C  C67  1  0.82189000  0.65200000  0.96230000  1.0
  C  C68  1  0.81905000  0.52690000  0.94730000  1.0
  C  C69  1  0.85434000  0.32810000  0.93770000  1.0
  C  C70  1  0.35560000  0.95800000  0.96530000  1.0
  C  C71  1  0.39527000  0.01230000  0.99740000  1.0
  C  C72  1  0.36158000  0.20220000  0.99280000  1.0
  C  C73  1  0.32189000  0.15200000  0.96230000  1.0
  C  C74  1  0.31905000  0.02690000  0.94730000  1.0
  C  C75  1  0.35434000  0.82810000  0.93770000  1.0
  C  C76  1  0.14440000  0.45800000  0.53470000  1.0
  C  C77  1  0.10473000  0.51230000  0.50260000  1.0
  C  C78  1  0.13842000  0.70220000  0.50720000  1.0
  C  C79  1  0.17811000  0.65200000  0.53770000  1.0
  C  C80  1  0.18095000  0.52690000  0.55270000  1.0
  C  C81  1  0.14566000  0.32810000  0.56230000  1.0
  C  C82  1  0.64440000  0.95800000  0.53470000  1.0
  C  C83  1  0.60473000  0.01230000  0.50260000  1.0
  C  C84  1  0.63842000  0.20220000  0.50720000  1.0
  C  C85  1  0.67811000  0.15200000  0.53770000  1.0
  C  C86  1  0.68095000  0.02690000  0.55270000  1.0
  C  C87  1  0.64566000  0.82810000  0.56230000  1.0
  C  C88  1  0.14440000  0.54200000  0.03470000  1.0
  C  C89  1  0.10473000  0.48770000  0.00260000  1.0
  C  C90  1  0.13842000  0.29780000  0.00720000  1.0
  C  C91  1  0.17811000  0.34800000  0.03770000  1.0
  C  C92  1  0.18095000  0.47310000  0.05270000  1.0
  C  C93  1  0.14566000  0.67190000  0.06230000  1.0
  C  C94  1  0.64440000  0.04200000  0.03470000  1.0
  C  C95  1  0.60473000  0.98770000  0.00260000  1.0
  C  C96  1  0.63842000  0.79780000  0.00720000  1.0
  C  C97  1  0.67811000  0.84800000  0.03770000  1.0
  C  C98  1  0.68095000  0.97310000  0.05270000  1.0
  C  C99  1  0.64566000  0.17190000  0.06230000  1.0
  C  C100  1  0.85560000  0.54200000  0.46530000  1.0
  C  C101  1  0.89527000  0.48770000  0.49740000  1.0
  C  C102  1  0.86158000  0.29780000  0.49280000  1.0
  C  C103  1  0.82189000  0.34800000  0.46230000  1.0
  C  C104  1  0.81905000  0.47310000  0.44730000  1.0
  C  C105  1  0.85434000  0.67190000  0.43770000  1.0
  C  C106  1  0.35560000  0.04200000  0.46530000  1.0
  C  C107  1  0.39527000  0.98770000  0.49740000  1.0
  C  C108  1  0.36158000  0.79780000  0.49280000  1.0
  C  C109  1  0.32189000  0.84800000  0.46230000  1.0
  C  C110  1  0.31905000  0.97310000  0.44730000  1.0
  C  C111  1  0.35434000  0.17190000  0.43770000  1.0
  N  N112  1  0.89721000  0.63370000  0.00820000  1.0
  N  N113  1  0.81898000  0.25970000  0.93790000  1.0
  N  N114  1  0.83352000  0.15180000  0.88940000  1.0
  N  N115  1  0.87535000  0.15710000  0.86460000  1.0
  N  N116  1  0.88945000  0.26640000  0.89430000  1.0
  N  N117  1  0.39721000  0.13370000  0.00820000  1.0
  N  N118  1  0.31898000  0.75970000  0.93790000  1.0
  N  N119  1  0.33352000  0.65180000  0.88940000  1.0
  N  N120  1  0.37535000  0.65710000  0.86460000  1.0
  N  N121  1  0.38945000  0.76640000  0.89430000  1.0
  N  N122  1  0.10279000  0.63370000  0.49180000  1.0
  N  N123  1  0.18102000  0.25970000  0.56210000  1.0
  N  N124  1  0.16648000  0.15180000  0.61060000  1.0
  N  N125  1  0.12465000  0.15710000  0.63540000  1.0
  N  N126  1  0.11055000  0.26640000  0.60570000  1.0
  N  N127  1  0.60279000  0.13370000  0.49180000  1.0
  N  N128  1  0.68102000  0.75970000  0.56210000  1.0
  N  N129  1  0.66648000  0.65180000  0.61060000  1.0
  N  N130  1  0.62465000  0.65710000  0.63540000  1.0
  N  N131  1  0.61055000  0.76640000  0.60570000  1.0
  N  N132  1  0.10279000  0.36630000  0.99180000  1.0
  N  N133  1  0.18102000  0.74030000  0.06210000  1.0
  N  N134  1  0.16648000  0.84820000  0.11060000  1.0
  N  N135  1  0.12465000  0.84290000  0.13540000  1.0
  N  N136  1  0.11055000  0.73360000  0.10570000  1.0
  N  N137  1  0.60279000  0.86630000  0.99180000  1.0
  N  N138  1  0.68102000  0.24030000  0.06210000  1.0
  N  N139  1  0.66648000  0.34820000  0.11060000  1.0
  N  N140  1  0.62465000  0.34290000  0.13540000  1.0
  N  N141  1  0.61055000  0.23360000  0.10570000  1.0
  N  N142  1  0.89721000  0.36630000  0.50820000  1.0
  N  N143  1  0.81898000  0.74030000  0.43790000  1.0
  N  N144  1  0.83352000  0.84820000  0.38940000  1.0
  N  N145  1  0.87535000  0.84290000  0.36460000  1.0
  N  N146  1  0.88945000  0.73360000  0.39430000  1.0
  N  N147  1  0.39721000  0.86630000  0.50820000  1.0
  N  N148  1  0.31898000  0.24030000  0.43790000  1.0
  N  N149  1  0.33352000  0.34820000  0.38940000  1.0
  N  N150  1  0.37535000  0.34290000  0.36460000  1.0
  N  N151  1  0.38945000  0.23360000  0.39430000  1.0
  O  O152  1  0.76508000  0.86450000  0.71890000  1.0
  O  O153  1  0.75141000  0.09600000  0.84580000  1.0
  O  O154  1  0.79812000  0.93950000  0.05160000  1.0
  O  O155  1  0.85226000  0.93370000  0.77360000  1.0
  O  O156  1  0.90917000  0.04320000  0.55240000  1.0
  O  O157  1  0.96093000  0.07490000  0.85210000  1.0
  O  O158  1  0.26508000  0.36450000  0.71890000  1.0
  O  O159  1  0.25141000  0.59600000  0.84580000  1.0
  O  O160  1  0.29812000  0.43950000  0.05160000  1.0
  O  O161  1  0.35226000  0.43370000  0.77360000  1.0
  O  O162  1  0.40917000  0.54320000  0.55240000  1.0
  O  O163  1  0.46093000  0.57490000  0.85210000  1.0
  O  O164  1  0.23492000  0.86450000  0.78110000  1.0
  O  O165  1  0.24859000  0.09600000  0.65420000  1.0
  O  O166  1  0.20188000  0.93950000  0.44840000  1.0
  O  O167  1  0.14774000  0.93370000  0.72640000  1.0
  O  O168  1  0.09083000  0.04320000  0.94760000  1.0
  O  O169  1  0.03907000  0.07490000  0.64790000  1.0
  O  O170  1  0.73492000  0.36450000  0.78110000  1.0
  O  O171  1  0.74859000  0.59600000  0.65420000  1.0
  O  O172  1  0.70188000  0.43950000  0.44840000  1.0
  O  O173  1  0.64774000  0.43370000  0.72640000  1.0
  O  O174  1  0.59083000  0.54320000  0.94760000  1.0
  O  O175  1  0.53907000  0.57490000  0.64790000  1.0
  O  O176  1  0.23492000  0.13550000  0.28110000  1.0
  O  O177  1  0.24859000  0.90400000  0.15420000  1.0
  O  O178  1  0.20188000  0.06050000  0.94840000  1.0
  O  O179  1  0.14774000  0.06630000  0.22640000  1.0
  O  O180  1  0.09083000  0.95680000  0.44760000  1.0
  O  O181  1  0.03907000  0.92510000  0.14790000  1.0
  O  O182  1  0.73492000  0.63550000  0.28110000  1.0
  O  O183  1  0.74859000  0.40400000  0.15420000  1.0
  O  O184  1  0.70188000  0.56050000  0.94840000  1.0
  O  O185  1  0.64774000  0.56630000  0.22640000  1.0
  O  O186  1  0.59083000  0.45680000  0.44760000  1.0
  O  O187  1  0.53907000  0.42510000  0.14790000  1.0
  O  O188  1  0.76508000  0.13550000  0.21890000  1.0
  O  O189  1  0.75141000  0.90400000  0.34580000  1.0
  O  O190  1  0.79812000  0.06050000  0.55160000  1.0
  O  O191  1  0.85226000  0.06630000  0.27360000  1.0
  O  O192  1  0.90917000  0.95680000  0.05240000  1.0
  O  O193  1  0.96093000  0.92510000  0.35210000  1.0
  O  O194  1  0.26508000  0.63550000  0.21890000  1.0
  O  O195  1  0.25141000  0.40400000  0.34580000  1.0
  O  O196  1  0.29812000  0.56050000  0.55160000  1.0
  O  O197  1  0.35226000  0.56630000  0.27360000  1.0
  O  O198  1  0.40917000  0.45680000  0.05240000  1.0
  O  O199  1  0.46093000  0.42510000  0.35210000  1.0
