# generated using pymatgen
data_CdH13C18N3O4
_symmetry_space_group_name_H-M   'P 1'
_cell_length_a   12.14800000
_cell_length_b   13.12300000
_cell_length_c   13.98000000
_cell_angle_alpha   75.63300000
_cell_angle_beta   64.45000000
_cell_angle_gamma   67.61600000
_symmetry_Int_Tables_number   1
_chemical_formula_structural   CdH13C18N3O4
_chemical_formula_sum   'Cd4 H52 C72 N12 O16'
_cell_volume   1849.79639587
_cell_formula_units_Z   4
loop_
 _symmetry_equiv_pos_site_id
 _symmetry_equiv_pos_as_xyz
  1  'x, y, z'
loop_
 _atom_site_type_symbol
 _atom_site_label
 _atom_site_symmetry_multiplicity
 _atom_site_fract_x
 _atom_site_fract_y
 _atom_site_fract_z
 _atom_site_occupancy
  Cd  Cd0  1  0.15062000  0.55385000  0.44913000  1.0
  Cd  Cd1  1  0.24978000  0.49186000  0.72287000  1.0
  Cd  Cd2  1  0.84938000  0.44615000  0.55087000  1.0
  Cd  Cd3  1  0.75022000  0.50814000  0.27713000  1.0
  H  H4  1  0.44920000  0.80770000  0.31590000  1.0
  H  H5  1  0.38220000  0.65860000  0.44640000  1.0
  H  H6  1  0.09640000  0.91510000  0.18930000  1.0
  H  H7  1  0.91820000  0.92110000  0.16840000  1.0
  H  H8  1  0.83230000  0.77950000  0.24040000  1.0
  H  H9  1  0.92680000  0.63400000  0.34400000  1.0
  H  H10  1  0.41280000  0.89150000  0.13800000  1.0
  H  H11  1  0.29120000  0.88700000  0.12790000  1.0
  H  H12  1  0.28280000  0.04080000  0.24370000  1.0
  H  H13  1  0.16160000  0.03680000  0.23200000  1.0
  H  H14  1  0.37380000  0.07660000  0.05340000  1.0
  H  H15  1  0.24170000  0.08800000  0.05110000  1.0
  H  H16  1  0.26320000  0.22990000  0.16140000  1.0
  H  H17  1  0.13970000  0.24560000  0.14180000  1.0
  H  H18  1  0.45300000  0.27900000  0.01340000  1.0
  H  H19  1  0.48180000  0.38680000  0.84020000  1.0
  H  H20  1  0.02880000  0.26150000  0.07110000  1.0
  H  H21  1  0.82830000  0.31170000  0.06670000  1.0
  H  H22  1  0.77430000  0.44660000  0.93630000  1.0
  H  H23  1  0.93380000  0.51920000  0.80740000  1.0
  H  H24  1  0.76360000  0.85750000  0.52100000  1.0
  H  H25  1  0.82900000  0.01040000  0.46680000  1.0
  H  H26  1  0.09990000  0.85530000  0.59110000  1.0
  H  H27  1  0.37700000  0.14810000  0.58860000  1.0
  H  H28  1  0.67810000  0.99240000  0.35280000  1.0
  H  H29  1  0.72020000  0.15480000  0.27480000  1.0
  H  H30  1  0.55080000  0.19230000  0.68410000  1.0
  H  H31  1  0.61780000  0.34140000  0.55360000  1.0
  H  H32  1  0.90360000  0.08490000  0.81070000  1.0
  H  H33  1  0.08180000  0.07890000  0.83160000  1.0
  H  H34  1  0.16770000  0.22050000  0.75960000  1.0
  H  H35  1  0.07320000  0.36600000  0.65600000  1.0
  H  H36  1  0.58720000  0.10850000  0.86200000  1.0
  H  H37  1  0.70880000  0.11300000  0.87210000  1.0
  H  H38  1  0.71720000  0.95920000  0.75630000  1.0
  H  H39  1  0.83840000  0.96320000  0.76800000  1.0
  H  H40  1  0.62620000  0.92340000  0.94660000  1.0
  H  H41  1  0.75830000  0.91200000  0.94890000  1.0
  H  H42  1  0.73680000  0.77010000  0.83860000  1.0
  H  H43  1  0.86030000  0.75440000  0.85820000  1.0
  H  H44  1  0.54700000  0.72100000  0.98660000  1.0
  H  H45  1  0.51820000  0.61320000  0.15980000  1.0
  H  H46  1  0.97120000  0.73850000  0.92890000  1.0
  H  H47  1  0.17170000  0.68830000  0.93330000  1.0
  H  H48  1  0.22570000  0.55340000  0.06370000  1.0
  H  H49  1  0.06620000  0.48080000  0.19260000  1.0
  H  H50  1  0.23640000  0.14250000  0.47900000  1.0
  H  H51  1  0.17100000  0.98960000  0.53320000  1.0
  H  H52  1  0.90010000  0.14470000  0.40890000  1.0
  H  H53  1  0.62300000  0.85190000  0.41140000  1.0
  H  H54  1  0.32190000  0.00760000  0.64720000  1.0
  H  H55  1  0.27980000  0.84520000  0.72520000  1.0
  C  C56  1  0.38240000  0.78290000  0.32600000  1.0
  C  C57  1  0.34620000  0.70010000  0.39670000  1.0
  C  C58  1  0.21680000  0.76250000  0.31170000  1.0
  C  C59  1  0.10850000  0.77070000  0.28340000  1.0
  C  C60  1  0.05920000  0.85880000  0.22130000  1.0
  C  C61  1  0.95520000  0.86080000  0.20830000  1.0
  C  C62  1  0.90310000  0.77890000  0.25090000  1.0
  C  C63  1  0.96130000  0.69190000  0.31240000  1.0
  C  C64  1  0.32130000  0.90280000  0.17490000  1.0
  C  C65  1  0.25350000  0.02380000  0.19680000  1.0
  C  C66  1  0.28180000  0.09820000  0.09340000  1.0
  C  C67  1  0.23290000  0.22110000  0.11110000  1.0
  C  C68  1  0.39560000  0.30470000  0.97880000  1.0
  C  C69  1  0.40960000  0.36520000  0.88400000  1.0
  C  C70  1  0.22190000  0.34420000  0.94060000  1.0
  C  C71  1  0.09850000  0.36280000  0.94160000  1.0
  C  C72  1  0.00790000  0.31430000  0.01830000  1.0
  C  C73  1  0.88840000  0.34450000  0.01570000  1.0
  C  C74  1  0.85610000  0.42360000  0.93790000  1.0
  C  C75  1  0.95200000  0.46720000  0.86170000  1.0
  C  C76  1  0.06960000  0.66720000  0.65870000  1.0
  C  C77  1  0.99550000  0.76490000  0.60480000  1.0
  C  C78  1  0.89690000  0.76270000  0.58240000  1.0
  C  C79  1  0.83370000  0.85680000  0.53280000  1.0
  C  C80  1  0.87250000  0.94850000  0.50090000  1.0
  C  C81  1  0.97670000  0.95160000  0.51820000  1.0
  C  C82  1  0.03350000  0.85570000  0.57440000  1.0
  C  C83  1  0.85030000  0.66050000  0.61660000  1.0
  C  C84  1  0.37070000  0.35250000  0.52990000  1.0
  C  C85  1  0.46390000  0.24920000  0.47870000  1.0
  C  C86  1  0.44380000  0.15020000  0.52290000  1.0
  C  C87  1  0.51530000  0.05370000  0.47680000  1.0
  C  C88  1  0.62290000  0.05750000  0.38370000  1.0
  C  C89  1  0.64860000  0.15460000  0.33720000  1.0
  C  C90  1  0.56840000  0.25380000  0.38240000  1.0
  C  C91  1  0.60440000  0.36080000  0.33090000  1.0
  C  C92  1  0.61760000  0.21710000  0.67400000  1.0
  C  C93  1  0.65380000  0.29990000  0.60330000  1.0
  C  C94  1  0.78320000  0.23750000  0.68830000  1.0
  C  C95  1  0.89150000  0.22930000  0.71660000  1.0
  C  C96  1  0.94080000  0.14120000  0.77870000  1.0
  C  C97  1  0.04480000  0.13920000  0.79170000  1.0
  C  C98  1  0.09690000  0.22110000  0.74910000  1.0
  C  C99  1  0.03870000  0.30810000  0.68760000  1.0
  C  C100  1  0.67870000  0.09720000  0.82510000  1.0
  C  C101  1  0.74650000  0.97620000  0.80320000  1.0
  C  C102  1  0.71820000  0.90180000  0.90660000  1.0
  C  C103  1  0.76710000  0.77890000  0.88890000  1.0
  C  C104  1  0.60440000  0.69530000  0.02120000  1.0
  C  C105  1  0.59040000  0.63480000  0.11600000  1.0
  C  C106  1  0.77810000  0.65580000  0.05940000  1.0
  C  C107  1  0.90150000  0.63720000  0.05840000  1.0
  C  C108  1  0.99210000  0.68570000  0.98170000  1.0
  C  C109  1  0.11160000  0.65550000  0.98430000  1.0
  C  C110  1  0.14390000  0.57640000  0.06210000  1.0
  C  C111  1  0.04800000  0.53280000  0.13830000  1.0
  C  C112  1  0.93040000  0.33280000  0.34130000  1.0
  C  C113  1  0.00450000  0.23510000  0.39520000  1.0
  C  C114  1  0.10310000  0.23730000  0.41760000  1.0
  C  C115  1  0.16630000  0.14320000  0.46720000  1.0
  C  C116  1  0.12750000  0.05150000  0.49910000  1.0
  C  C117  1  0.02330000  0.04840000  0.48180000  1.0
  C  C118  1  0.96650000  0.14430000  0.42560000  1.0
  C  C119  1  0.14970000  0.33950000  0.38340000  1.0
  C  C120  1  0.62930000  0.64750000  0.47010000  1.0
  C  C121  1  0.53610000  0.75080000  0.52130000  1.0
  C  C122  1  0.55620000  0.84980000  0.47710000  1.0
  C  C123  1  0.48470000  0.94630000  0.52320000  1.0
  C  C124  1  0.37710000  0.94250000  0.61630000  1.0
  C  C125  1  0.35140000  0.84540000  0.66280000  1.0
  C  C126  1  0.43160000  0.74620000  0.61760000  1.0
  C  C127  1  0.39560000  0.63920000  0.66910000  1.0
  N  N128  1  0.06370000  0.68830000  0.32760000  1.0
  N  N129  1  0.24750000  0.68720000  0.38320000  1.0
  N  N130  1  0.30080000  0.82340000  0.27170000  1.0
  N  N131  1  0.07060000  0.43640000  0.86440000  1.0
  N  N132  1  0.30310000  0.39080000  0.86070000  1.0
  N  N133  1  0.27500000  0.28860000  0.01460000  1.0
  N  N134  1  0.93630000  0.31170000  0.67240000  1.0
  N  N135  1  0.75250000  0.31280000  0.61680000  1.0
  N  N136  1  0.69920000  0.17660000  0.72830000  1.0
  N  N137  1  0.92940000  0.56360000  0.13560000  1.0
  N  N138  1  0.69690000  0.60920000  0.13930000  1.0
  N  N139  1  0.72500000  0.71140000  0.98540000  1.0
  O  O140  1  0.09510000  0.67750000  0.73120000  1.0
  O  O141  1  0.10550000  0.57190000  0.62390000  1.0
  O  O142  1  0.90640000  0.59080000  0.55030000  1.0
  O  O143  1  0.76700000  0.65180000  0.70360000  1.0
  O  O144  1  0.33340000  0.34570000  0.62870000  1.0
  O  O145  1  0.33240000  0.43580000  0.46740000  1.0
  O  O146  1  0.62140000  0.41100000  0.38170000  1.0
  O  O147  1  0.62190000  0.38350000  0.23410000  1.0
  O  O148  1  0.90490000  0.32250000  0.26880000  1.0
  O  O149  1  0.89450000  0.42810000  0.37610000  1.0
  O  O150  1  0.09360000  0.40920000  0.44970000  1.0
  O  O151  1  0.23300000  0.34820000  0.29640000  1.0
  O  O152  1  0.66666667  0.65430000  0.37130000  1.0
  O  O153  1  0.66760000  0.56420000  0.53260000  1.0
  O  O154  1  0.37860000  0.58900000  0.61830000  1.0
  O  O155  1  0.37810000  0.61650000  0.76590000  1.0
