# generated using pymatgen
data_AgH8(C6N)2
_symmetry_space_group_name_H-M   'P 1'
_cell_length_a   10.34830000
_cell_length_b   12.57460000
_cell_length_c   45.80200000
_cell_angle_alpha   90.00000000
_cell_angle_beta   90.00000000
_cell_angle_gamma   90.00000000
_symmetry_Int_Tables_number   1
_chemical_formula_structural   AgH8(C6N)2
_chemical_formula_sum   'Ag16 H128 C192 N32'
_cell_volume   5960.01883111
_cell_formula_units_Z   16
loop_
 _symmetry_equiv_pos_site_id
 _symmetry_equiv_pos_as_xyz
  1  'x, y, z'
loop_
 _atom_site_type_symbol
 _atom_site_label
 _atom_site_symmetry_multiplicity
 _atom_site_fract_x
 _atom_site_fract_y
 _atom_site_fract_z
 _atom_site_occupancy
  Ag  Ag0  1  0.33144000  0.38314000  0.99601000  1.0
  Ag  Ag1  1  0.83144000  0.88314000  0.99601000  1.0
  Ag  Ag2  1  0.66856000  0.61686000  0.49601000  1.0
  Ag  Ag3  1  0.16856000  0.11686000  0.49601000  1.0
  Ag  Ag4  1  0.66856000  0.38314000  0.50399000  1.0
  Ag  Ag5  1  0.16856000  0.88314000  0.50399000  1.0
  Ag  Ag6  1  0.33144000  0.61686000  0.00399000  1.0
  Ag  Ag7  1  0.83144000  0.11686000  0.00399000  1.0
  Ag  Ag8  1  0.50000000  0.48717000  0.25000000  1.0
  Ag  Ag9  1  0.50000000  0.25179000  0.25000000  1.0
  Ag  Ag10  1  0.00000000  0.98717000  0.25000000  1.0
  Ag  Ag11  1  0.00000000  0.75179000  0.25000000  1.0
  Ag  Ag12  1  0.50000000  0.51283000  0.75000000  1.0
  Ag  Ag13  1  0.50000000  0.74821000  0.75000000  1.0
  Ag  Ag14  1  0.00000000  0.01283000  0.75000000  1.0
  Ag  Ag15  1  0.00000000  0.24821000  0.75000000  1.0
  H  H16  1  0.20370000  0.48360000  0.23690000  1.0
  H  H17  1  0.05830000  0.46000000  0.19650000  1.0
  H  H18  1  0.14480000  0.43960000  0.15030000  1.0
  H  H19  1  0.50390000  0.45710000  0.18430000  1.0
  H  H20  1  0.33260000  0.41470000  0.06110000  1.0
  H  H21  1  0.69390000  0.43240000  0.09450000  1.0
  H  H22  1  0.77310000  0.40790000  0.04660000  1.0
  H  H23  1  0.63510000  0.38930000  0.00950000  1.0
  H  H24  1  0.79840000  0.28060000  0.24690000  1.0
  H  H25  1  0.97170000  0.25360000  0.21390000  1.0
  H  H26  1  0.92730000  0.22920000  0.16520000  1.0
  H  H27  1  0.54490000  0.22990000  0.18390000  1.0
  H  H28  1  0.80320000  0.14190000  0.07030000  1.0
  H  H29  1  0.42360000  0.15850000  0.09300000  1.0
  H  H30  1  0.36970000  0.11270000  0.04510000  1.0
  H  H31  1  0.53240000  0.10280000  0.01030000  1.0
  H  H32  1  0.70370000  0.98360000  0.23690000  1.0
  H  H33  1  0.55830000  0.96000000  0.19650000  1.0
  H  H34  1  0.64480000  0.93960000  0.15030000  1.0
  H  H35  1  0.00390000  0.95710000  0.18430000  1.0
  H  H36  1  0.83260000  0.91470000  0.06110000  1.0
  H  H37  1  0.19390000  0.93240000  0.09450000  1.0
  H  H38  1  0.27310000  0.90790000  0.04660000  1.0
  H  H39  1  0.13510000  0.88930000  0.00950000  1.0
  H  H40  1  0.29840000  0.78060000  0.24690000  1.0
  H  H41  1  0.47170000  0.75360000  0.21390000  1.0
  H  H42  1  0.42730000  0.72920000  0.16520000  1.0
  H  H43  1  0.04490000  0.72990000  0.18390000  1.0
  H  H44  1  0.30320000  0.64190000  0.07030000  1.0
  H  H45  1  0.92360000  0.65850000  0.09300000  1.0
  H  H46  1  0.86970000  0.61270000  0.04510000  1.0
  H  H47  1  0.03240000  0.60280000  0.01030000  1.0
  H  H48  1  0.79630000  0.51640000  0.73690000  1.0
  H  H49  1  0.94170000  0.54000000  0.69650000  1.0
  H  H50  1  0.85520000  0.56040000  0.65030000  1.0
  H  H51  1  0.49610000  0.54290000  0.68430000  1.0
  H  H52  1  0.66740000  0.58530000  0.56110000  1.0
  H  H53  1  0.30610000  0.56760000  0.59450000  1.0
  H  H54  1  0.22690000  0.59210000  0.54660000  1.0
  H  H55  1  0.36490000  0.61070000  0.50950000  1.0
  H  H56  1  0.20160000  0.71940000  0.74690000  1.0
  H  H57  1  0.02830000  0.74640000  0.71390000  1.0
  H  H58  1  0.07270000  0.77080000  0.66520000  1.0
  H  H59  1  0.45510000  0.77010000  0.68390000  1.0
  H  H60  1  0.19680000  0.85810000  0.57030000  1.0
  H  H61  1  0.57640000  0.84150000  0.59300000  1.0
  H  H62  1  0.63030000  0.88730000  0.54510000  1.0
  H  H63  1  0.46760000  0.89720000  0.51030000  1.0
  H  H64  1  0.29630000  0.01640000  0.73690000  1.0
  H  H65  1  0.44170000  0.04000000  0.69650000  1.0
  H  H66  1  0.35520000  0.06040000  0.65030000  1.0
  H  H67  1  0.99610000  0.04290000  0.68430000  1.0
  H  H68  1  0.16740000  0.08530000  0.56110000  1.0
  H  H69  1  0.80610000  0.06760000  0.59450000  1.0
  H  H70  1  0.72690000  0.09210000  0.54660000  1.0
  H  H71  1  0.86490000  0.11070000  0.50950000  1.0
  H  H72  1  0.70160000  0.21940000  0.74690000  1.0
  H  H73  1  0.52830000  0.24640000  0.71390000  1.0
  H  H74  1  0.57270000  0.27080000  0.66520000  1.0
  H  H75  1  0.95510000  0.27010000  0.68390000  1.0
  H  H76  1  0.69680000  0.35810000  0.57030000  1.0
  H  H77  1  0.07640000  0.34150000  0.59300000  1.0
  H  H78  1  0.13030000  0.38730000  0.54510000  1.0
  H  H79  1  0.96760000  0.39720000  0.51030000  1.0
  H  H80  1  0.79630000  0.48360000  0.26310000  1.0
  H  H81  1  0.94170000  0.46000000  0.30350000  1.0
  H  H82  1  0.85520000  0.43960000  0.34970000  1.0
  H  H83  1  0.49610000  0.45710000  0.31570000  1.0
  H  H84  1  0.66740000  0.41470000  0.43890000  1.0
  H  H85  1  0.30610000  0.43240000  0.40550000  1.0
  H  H86  1  0.22690000  0.40790000  0.45340000  1.0
  H  H87  1  0.36490000  0.38930000  0.49050000  1.0
  H  H88  1  0.20160000  0.28060000  0.25310000  1.0
  H  H89  1  0.02830000  0.25360000  0.28610000  1.0
  H  H90  1  0.07270000  0.22920000  0.33480000  1.0
  H  H91  1  0.45510000  0.22990000  0.31610000  1.0
  H  H92  1  0.19680000  0.14190000  0.42970000  1.0
  H  H93  1  0.57640000  0.15850000  0.40700000  1.0
  H  H94  1  0.63030000  0.11270000  0.45490000  1.0
  H  H95  1  0.46760000  0.10280000  0.48970000  1.0
  H  H96  1  0.29630000  0.98360000  0.26310000  1.0
  H  H97  1  0.44170000  0.96000000  0.30350000  1.0
  H  H98  1  0.35520000  0.93960000  0.34970000  1.0
  H  H99  1  0.99610000  0.95710000  0.31570000  1.0
  H  H100  1  0.16740000  0.91470000  0.43890000  1.0
  H  H101  1  0.80610000  0.93240000  0.40550000  1.0
  H  H102  1  0.72690000  0.90790000  0.45340000  1.0
  H  H103  1  0.86490000  0.88930000  0.49050000  1.0
  H  H104  1  0.70160000  0.78060000  0.25310000  1.0
  H  H105  1  0.52830000  0.75360000  0.28610000  1.0
  H  H106  1  0.57270000  0.72920000  0.33480000  1.0
  H  H107  1  0.95510000  0.72990000  0.31610000  1.0
  H  H108  1  0.69680000  0.64190000  0.42970000  1.0
  H  H109  1  0.07640000  0.65850000  0.40700000  1.0
  H  H110  1  0.13030000  0.61270000  0.45490000  1.0
  H  H111  1  0.96760000  0.60280000  0.48970000  1.0
  H  H112  1  0.20370000  0.51640000  0.76310000  1.0
  H  H113  1  0.05830000  0.54000000  0.80350000  1.0
  H  H114  1  0.14480000  0.56040000  0.84970000  1.0
  H  H115  1  0.50390000  0.54290000  0.81570000  1.0
  H  H116  1  0.33260000  0.58530000  0.93890000  1.0
  H  H117  1  0.69390000  0.56760000  0.90550000  1.0
  H  H118  1  0.77310000  0.59210000  0.95340000  1.0
  H  H119  1  0.63510000  0.61070000  0.99050000  1.0
  H  H120  1  0.79840000  0.71940000  0.75310000  1.0
  H  H121  1  0.97170000  0.74640000  0.78610000  1.0
  H  H122  1  0.92730000  0.77080000  0.83480000  1.0
  H  H123  1  0.54490000  0.77010000  0.81610000  1.0
  H  H124  1  0.80320000  0.85810000  0.92970000  1.0
  H  H125  1  0.42360000  0.84150000  0.90700000  1.0
  H  H126  1  0.36970000  0.88730000  0.95490000  1.0
  H  H127  1  0.53240000  0.89720000  0.98970000  1.0
  H  H128  1  0.70370000  0.01640000  0.76310000  1.0
  H  H129  1  0.55830000  0.04000000  0.80350000  1.0
  H  H130  1  0.64480000  0.06040000  0.84970000  1.0
  H  H131  1  0.00390000  0.04290000  0.81570000  1.0
  H  H132  1  0.83260000  0.08530000  0.93890000  1.0
  H  H133  1  0.19390000  0.06760000  0.90550000  1.0
  H  H134  1  0.27310000  0.09210000  0.95340000  1.0
  H  H135  1  0.13510000  0.11070000  0.99050000  1.0
  H  H136  1  0.29840000  0.21940000  0.75310000  1.0
  H  H137  1  0.47170000  0.24640000  0.78610000  1.0
  H  H138  1  0.42730000  0.27080000  0.83480000  1.0
  H  H139  1  0.04490000  0.27010000  0.81610000  1.0
  H  H140  1  0.30320000  0.35810000  0.92970000  1.0
  H  H141  1  0.92360000  0.34150000  0.90700000  1.0
  H  H142  1  0.86970000  0.38730000  0.95490000  1.0
  H  H143  1  0.03240000  0.39720000  0.98970000  1.0
  C  C144  1  0.23770000  0.47290000  0.21790000  1.0
  C  C145  1  0.14920000  0.46010000  0.19360000  1.0
  C  C146  1  0.20000000  0.44820000  0.16670000  1.0
  C  C147  1  0.33470000  0.44860000  0.16298000  1.0
  C  C148  1  0.41290000  0.45860000  0.18710000  1.0
  C  C149  1  0.39430000  0.43970000  0.13400000  1.0
  C  C150  1  0.44360000  0.43440000  0.11120000  1.0
  C  C151  1  0.50290000  0.42650000  0.08260000  1.0
  C  C152  1  0.42360000  0.41380000  0.05840000  1.0
  C  C153  1  0.63640000  0.42430000  0.07850000  1.0
  C  C154  1  0.68280000  0.40990000  0.05020000  1.0
  C  C155  1  0.60030000  0.39890000  0.02850000  1.0
  C  C156  1  0.77970000  0.26510000  0.22710000  1.0
  C  C157  1  0.88490000  0.25100000  0.20720000  1.0
  C  C158  1  0.85880000  0.23400000  0.17890000  1.0
  C  C159  1  0.73080000  0.22340000  0.16970000  1.0
  C  C160  1  0.63200000  0.23620000  0.19020000  1.0
  C  C161  1  0.69600000  0.20100000  0.14110000  1.0
  C  C162  1  0.66050000  0.17710000  0.11580000  1.0
  C  C163  1  0.62010000  0.15380000  0.08720000  1.0
  C  C164  1  0.71420000  0.13780000  0.06540000  1.0
  C  C165  1  0.48970000  0.14660000  0.07890000  1.0
  C  C166  1  0.45740000  0.12250000  0.05060000  1.0
  C  C167  1  0.55520000  0.11270000  0.03030000  1.0
  C  C168  1  0.73770000  0.97290000  0.21790000  1.0
  C  C169  1  0.64920000  0.96010000  0.19360000  1.0
  C  C170  1  0.70000000  0.94820000  0.16670000  1.0
  C  C171  1  0.83470000  0.94860000  0.16298000  1.0
  C  C172  1  0.91290000  0.95860000  0.18710000  1.0
  C  C173  1  0.89430000  0.93970000  0.13400000  1.0
  C  C174  1  0.94360000  0.93440000  0.11120000  1.0
  C  C175  1  0.00290000  0.92650000  0.08260000  1.0
  C  C176  1  0.92360000  0.91380000  0.05840000  1.0
  C  C177  1  0.13640000  0.92430000  0.07850000  1.0
  C  C178  1  0.18280000  0.90990000  0.05020000  1.0
  C  C179  1  0.10030000  0.89890000  0.02850000  1.0
  C  C180  1  0.27970000  0.76510000  0.22710000  1.0
  C  C181  1  0.38490000  0.75100000  0.20720000  1.0
  C  C182  1  0.35880000  0.73400000  0.17890000  1.0
  C  C183  1  0.23080000  0.72340000  0.16970000  1.0
  C  C184  1  0.13200000  0.73620000  0.19020000  1.0
  C  C185  1  0.19600000  0.70100000  0.14110000  1.0
  C  C186  1  0.16050000  0.67710000  0.11580000  1.0
  C  C187  1  0.12010000  0.65380000  0.08720000  1.0
  C  C188  1  0.21420000  0.63780000  0.06540000  1.0
  C  C189  1  0.98970000  0.64660000  0.07890000  1.0
  C  C190  1  0.95740000  0.62250000  0.05060000  1.0
  C  C191  1  0.05520000  0.61270000  0.03030000  1.0
  C  C192  1  0.76230000  0.52710000  0.71790000  1.0
  C  C193  1  0.85080000  0.53990000  0.69360000  1.0
  C  C194  1  0.80000000  0.55180000  0.66666667  1.0
  C  C195  1  0.66530000  0.55140000  0.66298000  1.0
  C  C196  1  0.58710000  0.54140000  0.68710000  1.0
  C  C197  1  0.60570000  0.56030000  0.63400000  1.0
  C  C198  1  0.55640000  0.56560000  0.61120000  1.0
  C  C199  1  0.49710000  0.57350000  0.58260000  1.0
  C  C200  1  0.57640000  0.58620000  0.55840000  1.0
  C  C201  1  0.36360000  0.57570000  0.57850000  1.0
  C  C202  1  0.31720000  0.59010000  0.55020000  1.0
  C  C203  1  0.39970000  0.60110000  0.52850000  1.0
  C  C204  1  0.22030000  0.73490000  0.72710000  1.0
  C  C205  1  0.11510000  0.74900000  0.70720000  1.0
  C  C206  1  0.14120000  0.76600000  0.67890000  1.0
  C  C207  1  0.26920000  0.77660000  0.66970000  1.0
  C  C208  1  0.36800000  0.76380000  0.69020000  1.0
  C  C209  1  0.30400000  0.79900000  0.64110000  1.0
  C  C210  1  0.33950000  0.82290000  0.61580000  1.0
  C  C211  1  0.37990000  0.84620000  0.58720000  1.0
  C  C212  1  0.28580000  0.86220000  0.56540000  1.0
  C  C213  1  0.51030000  0.85340000  0.57890000  1.0
  C  C214  1  0.54260000  0.87750000  0.55060000  1.0
  C  C215  1  0.44480000  0.88730000  0.53030000  1.0
  C  C216  1  0.26230000  0.02710000  0.71790000  1.0
  C  C217  1  0.35080000  0.03990000  0.69360000  1.0
  C  C218  1  0.30000000  0.05180000  0.66666667  1.0
  C  C219  1  0.16530000  0.05140000  0.66298000  1.0
  C  C220  1  0.08710000  0.04140000  0.68710000  1.0
  C  C221  1  0.10570000  0.06030000  0.63400000  1.0
  C  C222  1  0.05640000  0.06560000  0.61120000  1.0
  C  C223  1  0.99710000  0.07350000  0.58260000  1.0
  C  C224  1  0.07640000  0.08620000  0.55840000  1.0
  C  C225  1  0.86360000  0.07570000  0.57850000  1.0
  C  C226  1  0.81720000  0.09010000  0.55020000  1.0
  C  C227  1  0.89970000  0.10110000  0.52850000  1.0
  C  C228  1  0.72030000  0.23490000  0.72710000  1.0
  C  C229  1  0.61510000  0.24900000  0.70720000  1.0
  C  C230  1  0.64120000  0.26600000  0.67890000  1.0
  C  C231  1  0.76920000  0.27660000  0.66970000  1.0
  C  C232  1  0.86800000  0.26380000  0.69020000  1.0
  C  C233  1  0.80400000  0.29900000  0.64110000  1.0
  C  C234  1  0.83950000  0.32290000  0.61580000  1.0
  C  C235  1  0.87990000  0.34620000  0.58720000  1.0
  C  C236  1  0.78580000  0.36220000  0.56540000  1.0
  C  C237  1  0.01030000  0.35340000  0.57890000  1.0
  C  C238  1  0.04260000  0.37750000  0.55060000  1.0
  C  C239  1  0.94480000  0.38730000  0.53030000  1.0
  C  C240  1  0.76230000  0.47290000  0.28210000  1.0
  C  C241  1  0.85080000  0.46010000  0.30640000  1.0
  C  C242  1  0.80000000  0.44820000  0.33333333  1.0
  C  C243  1  0.66530000  0.44860000  0.33702000  1.0
  C  C244  1  0.58710000  0.45860000  0.31290000  1.0
  C  C245  1  0.60570000  0.43970000  0.36600000  1.0
  C  C246  1  0.55640000  0.43440000  0.38880000  1.0
  C  C247  1  0.49710000  0.42650000  0.41740000  1.0
  C  C248  1  0.57640000  0.41380000  0.44160000  1.0
  C  C249  1  0.36360000  0.42430000  0.42150000  1.0
  C  C250  1  0.31720000  0.40990000  0.44980000  1.0
  C  C251  1  0.39970000  0.39890000  0.47150000  1.0
  C  C252  1  0.22030000  0.26510000  0.27290000  1.0
  C  C253  1  0.11510000  0.25100000  0.29280000  1.0
  C  C254  1  0.14120000  0.23400000  0.32110000  1.0
  C  C255  1  0.26920000  0.22340000  0.33030000  1.0
  C  C256  1  0.36800000  0.23620000  0.30980000  1.0
  C  C257  1  0.30400000  0.20100000  0.35890000  1.0
  C  C258  1  0.33950000  0.17710000  0.38420000  1.0
  C  C259  1  0.37990000  0.15380000  0.41280000  1.0
  C  C260  1  0.28580000  0.13780000  0.43460000  1.0
  C  C261  1  0.51030000  0.14660000  0.42110000  1.0
  C  C262  1  0.54260000  0.12250000  0.44940000  1.0
  C  C263  1  0.44480000  0.11270000  0.46970000  1.0
  C  C264  1  0.26230000  0.97290000  0.28210000  1.0
  C  C265  1  0.35080000  0.96010000  0.30640000  1.0
  C  C266  1  0.30000000  0.94820000  0.33333333  1.0
  C  C267  1  0.16530000  0.94860000  0.33702000  1.0
  C  C268  1  0.08710000  0.95860000  0.31290000  1.0
  C  C269  1  0.10570000  0.93970000  0.36600000  1.0
  C  C270  1  0.05640000  0.93440000  0.38880000  1.0
  C  C271  1  0.99710000  0.92650000  0.41740000  1.0
  C  C272  1  0.07640000  0.91380000  0.44160000  1.0
  C  C273  1  0.86360000  0.92430000  0.42150000  1.0
  C  C274  1  0.81720000  0.90990000  0.44980000  1.0
  C  C275  1  0.89970000  0.89890000  0.47150000  1.0
  C  C276  1  0.72030000  0.76510000  0.27290000  1.0
  C  C277  1  0.61510000  0.75100000  0.29280000  1.0
  C  C278  1  0.64120000  0.73400000  0.32110000  1.0
  C  C279  1  0.76920000  0.72340000  0.33030000  1.0
  C  C280  1  0.86800000  0.73620000  0.30980000  1.0
  C  C281  1  0.80400000  0.70100000  0.35890000  1.0
  C  C282  1  0.83950000  0.67710000  0.38420000  1.0
  C  C283  1  0.87990000  0.65380000  0.41280000  1.0
  C  C284  1  0.78580000  0.63780000  0.43460000  1.0
  C  C285  1  0.01030000  0.64660000  0.42110000  1.0
  C  C286  1  0.04260000  0.62250000  0.44940000  1.0
  C  C287  1  0.94480000  0.61270000  0.46970000  1.0
  C  C288  1  0.23770000  0.52710000  0.78210000  1.0
  C  C289  1  0.14920000  0.53990000  0.80640000  1.0
  C  C290  1  0.20000000  0.55180000  0.83330000  1.0
  C  C291  1  0.33470000  0.55140000  0.83702000  1.0
  C  C292  1  0.41290000  0.54140000  0.81290000  1.0
  C  C293  1  0.39430000  0.56030000  0.86600000  1.0
  C  C294  1  0.44360000  0.56560000  0.88880000  1.0
  C  C295  1  0.50290000  0.57350000  0.91740000  1.0
  C  C296  1  0.42360000  0.58620000  0.94160000  1.0
  C  C297  1  0.63640000  0.57570000  0.92150000  1.0
  C  C298  1  0.68280000  0.59010000  0.94980000  1.0
  C  C299  1  0.60030000  0.60110000  0.97150000  1.0
  C  C300  1  0.77970000  0.73490000  0.77290000  1.0
  C  C301  1  0.88490000  0.74900000  0.79280000  1.0
  C  C302  1  0.85880000  0.76600000  0.82110000  1.0
  C  C303  1  0.73080000  0.77660000  0.83030000  1.0
  C  C304  1  0.63200000  0.76380000  0.80980000  1.0
  C  C305  1  0.69600000  0.79900000  0.85890000  1.0
  C  C306  1  0.66050000  0.82290000  0.88420000  1.0
  C  C307  1  0.62010000  0.84620000  0.91280000  1.0
  C  C308  1  0.71420000  0.86220000  0.93460000  1.0
  C  C309  1  0.48970000  0.85340000  0.92110000  1.0
  C  C310  1  0.45740000  0.87750000  0.94940000  1.0
  C  C311  1  0.55520000  0.88730000  0.96970000  1.0
  C  C312  1  0.73770000  0.02710000  0.78210000  1.0
  C  C313  1  0.64920000  0.03990000  0.80640000  1.0
  C  C314  1  0.70000000  0.05180000  0.83330000  1.0
  C  C315  1  0.83470000  0.05140000  0.83702000  1.0
  C  C316  1  0.91290000  0.04140000  0.81290000  1.0
  C  C317  1  0.89430000  0.06030000  0.86600000  1.0
  C  C318  1  0.94360000  0.06560000  0.88880000  1.0
  C  C319  1  0.00290000  0.07350000  0.91740000  1.0
  C  C320  1  0.92360000  0.08620000  0.94160000  1.0
  C  C321  1  0.13640000  0.07570000  0.92150000  1.0
  C  C322  1  0.18280000  0.09010000  0.94980000  1.0
  C  C323  1  0.10030000  0.10110000  0.97150000  1.0
  C  C324  1  0.27970000  0.23490000  0.77290000  1.0
  C  C325  1  0.38490000  0.24900000  0.79280000  1.0
  C  C326  1  0.35880000  0.26600000  0.82110000  1.0
  C  C327  1  0.23080000  0.27660000  0.83030000  1.0
  C  C328  1  0.13200000  0.26380000  0.80980000  1.0
  C  C329  1  0.19600000  0.29900000  0.85890000  1.0
  C  C330  1  0.16050000  0.32290000  0.88420000  1.0
  C  C331  1  0.12010000  0.34620000  0.91280000  1.0
  C  C332  1  0.21420000  0.36220000  0.93460000  1.0
  C  C333  1  0.98970000  0.35340000  0.92110000  1.0
  C  C334  1  0.95740000  0.37750000  0.94940000  1.0
  C  C335  1  0.05520000  0.38730000  0.96970000  1.0
  N  N336  1  0.36820000  0.47020000  0.21414000  1.0
  N  N337  1  0.47080000  0.40030000  0.03105000  1.0
  N  N338  1  0.65630000  0.25750000  0.21888000  1.0
  N  N339  1  0.67950000  0.11670000  0.03724000  1.0
  N  N340  1  0.86820000  0.97020000  0.21414000  1.0
  N  N341  1  0.97080000  0.90030000  0.03105000  1.0
  N  N342  1  0.15630000  0.75750000  0.21888000  1.0
  N  N343  1  0.17950000  0.61670000  0.03724000  1.0
  N  N344  1  0.63180000  0.52980000  0.71414000  1.0
  N  N345  1  0.52920000  0.59970000  0.53105000  1.0
  N  N346  1  0.34370000  0.74250000  0.71888000  1.0
  N  N347  1  0.32050000  0.88330000  0.53724000  1.0
  N  N348  1  0.13180000  0.02980000  0.71414000  1.0
  N  N349  1  0.02920000  0.09970000  0.53105000  1.0
  N  N350  1  0.84370000  0.24250000  0.71888000  1.0
  N  N351  1  0.82050000  0.38330000  0.53724000  1.0
  N  N352  1  0.63180000  0.47020000  0.28586000  1.0
  N  N353  1  0.52920000  0.40030000  0.46895000  1.0
  N  N354  1  0.34370000  0.25750000  0.28112000  1.0
  N  N355  1  0.32050000  0.11670000  0.46276000  1.0
  N  N356  1  0.13180000  0.97020000  0.28586000  1.0
  N  N357  1  0.02920000  0.90030000  0.46895000  1.0
  N  N358  1  0.84370000  0.75750000  0.28112000  1.0
  N  N359  1  0.82050000  0.61670000  0.46276000  1.0
  N  N360  1  0.36820000  0.52980000  0.78586000  1.0
  N  N361  1  0.47080000  0.59970000  0.96895000  1.0
  N  N362  1  0.65630000  0.74250000  0.78112000  1.0
  N  N363  1  0.67950000  0.88330000  0.96276000  1.0
  N  N364  1  0.86820000  0.02980000  0.78586000  1.0
  N  N365  1  0.97080000  0.09970000  0.96895000  1.0
  N  N366  1  0.15630000  0.24250000  0.78112000  1.0
  N  N367  1  0.17950000  0.38330000  0.96276000  1.0
