# generated using pymatgen
data_Mn3H15(C15O8)2
_symmetry_space_group_name_H-M   'P 1'
_cell_length_a   28.10500000
_cell_length_b   28.10500000
_cell_length_c   14.59800000
_cell_angle_alpha   90.00000000
_cell_angle_beta   90.00000000
_cell_angle_gamma   120.00000000
_symmetry_Int_Tables_number   1
_chemical_formula_structural   Mn3H15(C15O8)2
_chemical_formula_sum   'Mn18 H90 C180 O96'
_cell_volume   9985.99099913
_cell_formula_units_Z   6
loop_
 _symmetry_equiv_pos_site_id
 _symmetry_equiv_pos_as_xyz
  1  'x, y, z'
loop_
 _atom_site_type_symbol
 _atom_site_label
 _atom_site_symmetry_multiplicity
 _atom_site_fract_x
 _atom_site_fract_y
 _atom_site_fract_z
 _atom_site_occupancy
  Mn  Mn0  1  0.31173000  0.15586000  0.02518000  1.0
  Mn  Mn1  1  0.45173000  0.22586000  0.93261000  1.0
  Mn  Mn2  1  0.42118000  0.21059000  0.18607000  1.0
  Mn  Mn3  1  0.84414000  0.15587000  0.02518000  1.0
  Mn  Mn4  1  0.77414000  0.22587000  0.93261000  1.0
  Mn  Mn5  1  0.78941000  0.21059000  0.18607000  1.0
  Mn  Mn6  1  0.84413000  0.68827000  0.02518000  1.0
  Mn  Mn7  1  0.77413000  0.54827000  0.93261000  1.0
  Mn  Mn8  1  0.78941000  0.57882000  0.18607000  1.0
  Mn  Mn9  1  0.15586000  0.31173000  0.97482000  1.0
  Mn  Mn10  1  0.22586000  0.45173000  0.06739000  1.0
  Mn  Mn11  1  0.21059000  0.42118000  0.81393000  1.0
  Mn  Mn12  1  0.15587000  0.84414000  0.97482000  1.0
  Mn  Mn13  1  0.22587000  0.77414000  0.06739000  1.0
  Mn  Mn14  1  0.21059000  0.78941000  0.81393000  1.0
  Mn  Mn15  1  0.68827000  0.84413000  0.97482000  1.0
  Mn  Mn16  1  0.54827000  0.77413000  0.06739000  1.0
  Mn  Mn17  1  0.57882000  0.78941000  0.81393000  1.0
  H  H18  1  0.41300000  0.31980000  0.74550000  1.0
  H  H19  1  0.31280000  0.38010000  0.69020000  1.0
  H  H20  1  0.27380000  0.26930000  0.88730000  1.0
  H  H21  1  0.38680000  0.44390000  0.63080000  1.0
  H  H22  1  0.36920000  0.40410000  0.54580000  1.0
  H  H23  1  0.45720000  0.48670000  0.71580000  1.0
  H  H24  1  0.36460000  0.49490000  0.77530000  1.0
  H  H25  1  0.68020000  0.09320000  0.74550000  1.0
  H  H26  1  0.61990000  0.93270000  0.69020000  1.0
  H  H27  1  0.73070000  0.00450000  0.88730000  1.0
  H  H28  1  0.55610000  0.94290000  0.63080000  1.0
  H  H29  1  0.59590000  0.96510000  0.54580000  1.0
  H  H30  1  0.51330000  0.97050000  0.71580000  1.0
  H  H31  1  0.50510000  0.86970000  0.77530000  1.0
  H  H32  1  0.90680000  0.58700000  0.74550000  1.0
  H  H33  1  0.06730000  0.68720000  0.69020000  1.0
  H  H34  1  0.99550000  0.72620000  0.88730000  1.0
  H  H35  1  0.05710000  0.61320000  0.63080000  1.0
  H  H36  1  0.03490000  0.63080000  0.54580000  1.0
  H  H37  1  0.02950000  0.54280000  0.71580000  1.0
  H  H38  1  0.13030000  0.63540000  0.77530000  1.0
  H  H39  1  0.31980000  0.41300000  0.25450000  1.0
  H  H40  1  0.38010000  0.31280000  0.30980000  1.0
  H  H41  1  0.26930000  0.27380000  0.11270000  1.0
  H  H42  1  0.44390000  0.38680000  0.36920000  1.0
  H  H43  1  0.40410000  0.36920000  0.45420000  1.0
  H  H44  1  0.48670000  0.45720000  0.28420000  1.0
  H  H45  1  0.49490000  0.36460000  0.22470000  1.0
  H  H46  1  0.09320000  0.68020000  0.25450000  1.0
  H  H47  1  0.93270000  0.61990000  0.30980000  1.0
  H  H48  1  0.00450000  0.73070000  0.11270000  1.0
  H  H49  1  0.94290000  0.55610000  0.36920000  1.0
  H  H50  1  0.96510000  0.59590000  0.45420000  1.0
  H  H51  1  0.97050000  0.51330000  0.28420000  1.0
  H  H52  1  0.86970000  0.50510000  0.22470000  1.0
  H  H53  1  0.58700000  0.90680000  0.25450000  1.0
  H  H54  1  0.68720000  0.06730000  0.30980000  1.0
  H  H55  1  0.72620000  0.99550000  0.11270000  1.0
  H  H56  1  0.61320000  0.05710000  0.36920000  1.0
  H  H57  1  0.63080000  0.03490000  0.45420000  1.0
  H  H58  1  0.54280000  0.02950000  0.28420000  1.0
  H  H59  1  0.63540000  0.13030000  0.22470000  1.0
  H  H60  1  0.58700000  0.68020000  0.25450000  1.0
  H  H61  1  0.68720000  0.61990000  0.30980000  1.0
  H  H62  1  0.72620000  0.73070000  0.11270000  1.0
  H  H63  1  0.61320000  0.55610000  0.36920000  1.0
  H  H64  1  0.63080000  0.59590000  0.45420000  1.0
  H  H65  1  0.54280000  0.51330000  0.28420000  1.0
  H  H66  1  0.63540000  0.50510000  0.22470000  1.0
  H  H67  1  0.31980000  0.90680000  0.25450000  1.0
  H  H68  1  0.38010000  0.06730000  0.30980000  1.0
  H  H69  1  0.26930000  0.99550000  0.11270000  1.0
  H  H70  1  0.44390000  0.05710000  0.36920000  1.0
  H  H71  1  0.40410000  0.03490000  0.45420000  1.0
  H  H72  1  0.48670000  0.02950000  0.28420000  1.0
  H  H73  1  0.49490000  0.13030000  0.22470000  1.0
  H  H74  1  0.09320000  0.41300000  0.25450000  1.0
  H  H75  1  0.93270000  0.31280000  0.30980000  1.0
  H  H76  1  0.00450000  0.27380000  0.11270000  1.0
  H  H77  1  0.94290000  0.38680000  0.36920000  1.0
  H  H78  1  0.96510000  0.36920000  0.45420000  1.0
  H  H79  1  0.97050000  0.45720000  0.28420000  1.0
  H  H80  1  0.86970000  0.36460000  0.22470000  1.0
  H  H81  1  0.68020000  0.58700000  0.74550000  1.0
  H  H82  1  0.61990000  0.68720000  0.69020000  1.0
  H  H83  1  0.73070000  0.72620000  0.88730000  1.0
  H  H84  1  0.55610000  0.61320000  0.63080000  1.0
  H  H85  1  0.59590000  0.63080000  0.54580000  1.0
  H  H86  1  0.51330000  0.54280000  0.71580000  1.0
  H  H87  1  0.50510000  0.63540000  0.77530000  1.0
  H  H88  1  0.90680000  0.31980000  0.74550000  1.0
  H  H89  1  0.06730000  0.38010000  0.69020000  1.0
  H  H90  1  0.99550000  0.26930000  0.88730000  1.0
  H  H91  1  0.05710000  0.44390000  0.63080000  1.0
  H  H92  1  0.03490000  0.40410000  0.54580000  1.0
  H  H93  1  0.02950000  0.48670000  0.71580000  1.0
  H  H94  1  0.13030000  0.49490000  0.77530000  1.0
  H  H95  1  0.41300000  0.09320000  0.74550000  1.0
  H  H96  1  0.31280000  0.93270000  0.69020000  1.0
  H  H97  1  0.27380000  0.00450000  0.88730000  1.0
  H  H98  1  0.38680000  0.94290000  0.63080000  1.0
  H  H99  1  0.36920000  0.96510000  0.54580000  1.0
  H  H100  1  0.45720000  0.97050000  0.71580000  1.0
  H  H101  1  0.36460000  0.86970000  0.77530000  1.0
  H  H102  1  0.40270000  0.59730000  0.98850000  1.0
  H  H103  1  0.40270000  0.80540000  0.98850000  1.0
  H  H104  1  0.19460000  0.59730000  0.98850000  1.0
  H  H105  1  0.59730000  0.40270000  0.01150000  1.0
  H  H106  1  0.80540000  0.40270000  0.01150000  1.0
  H  H107  1  0.59730000  0.19460000  0.01150000  1.0
  C  C108  1  0.35980000  0.25240000  0.87660000  1.0
  C  C109  1  0.34500000  0.28770000  0.82430000  1.0
  C  C110  1  0.38100000  0.32070000  0.75700000  1.0
  C  C111  1  0.36890000  0.35560000  0.70630000  1.0
  C  C112  1  0.32140000  0.35730000  0.72380000  1.0
  C  C113  1  0.28670000  0.32360000  0.79320000  1.0
  C  C114  1  0.29780000  0.29080000  0.84130000  1.0
  C  C115  1  0.23510000  0.32750000  0.81390000  1.0
  C  C116  1  0.39790000  0.42370000  0.59070000  1.0
  C  C117  1  0.45200000  0.46280000  0.54340000  1.0
  C  C118  1  0.38890000  0.52780000  0.80400000  1.0
  C  C119  1  0.37640000  0.54130000  0.88850000  1.0
  C  C120  1  0.31970000  0.50180000  0.93240000  1.0
  C  C121  1  0.74760000  0.10740000  0.87660000  1.0
  C  C122  1  0.71230000  0.05730000  0.82430000  1.0
  C  C123  1  0.67930000  0.06030000  0.75700000  1.0
  C  C124  1  0.64440000  0.01330000  0.70630000  1.0
  C  C125  1  0.64270000  0.96410000  0.72380000  1.0
  C  C126  1  0.67640000  0.96310000  0.79320000  1.0
  C  C127  1  0.70920000  0.00700000  0.84130000  1.0
  C  C128  1  0.67250000  0.90760000  0.81390000  1.0
  C  C129  1  0.57630000  0.97420000  0.59070000  1.0
  C  C130  1  0.53720000  0.98920000  0.54340000  1.0
  C  C131  1  0.47220000  0.86110000  0.80400000  1.0
  C  C132  1  0.45870000  0.83510000  0.88850000  1.0
  C  C133  1  0.49820000  0.81790000  0.93240000  1.0
  C  C134  1  0.89260000  0.64020000  0.87660000  1.0
  C  C135  1  0.94270000  0.65500000  0.82430000  1.0
  C  C136  1  0.93970000  0.61900000  0.75700000  1.0
  C  C137  1  0.98670000  0.63110000  0.70630000  1.0
  C  C138  1  0.03590000  0.67860000  0.72380000  1.0
  C  C139  1  0.03690000  0.71330000  0.79320000  1.0
  C  C140  1  0.99300000  0.70220000  0.84130000  1.0
  C  C141  1  0.09240000  0.76490000  0.81390000  1.0
  C  C142  1  0.02580000  0.60210000  0.59070000  1.0
  C  C143  1  0.01080000  0.54800000  0.54340000  1.0
  C  C144  1  0.13890000  0.61110000  0.80400000  1.0
  C  C145  1  0.16490000  0.62360000  0.88850000  1.0
  C  C146  1  0.18210000  0.68030000  0.93240000  1.0
  C  C147  1  0.25240000  0.35980000  0.12340000  1.0
  C  C148  1  0.28770000  0.34500000  0.17570000  1.0
  C  C149  1  0.32070000  0.38100000  0.24300000  1.0
  C  C150  1  0.35560000  0.36890000  0.29370000  1.0
  C  C151  1  0.35730000  0.32140000  0.27620000  1.0
  C  C152  1  0.32360000  0.28670000  0.20680000  1.0
  C  C153  1  0.29080000  0.29780000  0.15870000  1.0
  C  C154  1  0.32750000  0.23510000  0.18610000  1.0
  C  C155  1  0.42370000  0.39790000  0.40930000  1.0
  C  C156  1  0.46280000  0.45200000  0.45660000  1.0
  C  C157  1  0.52780000  0.38890000  0.19600000  1.0
  C  C158  1  0.54130000  0.37640000  0.11150000  1.0
  C  C159  1  0.50180000  0.31970000  0.06760000  1.0
  C  C160  1  0.10740000  0.74760000  0.12340000  1.0
  C  C161  1  0.05730000  0.71230000  0.17570000  1.0
  C  C162  1  0.06030000  0.67930000  0.24300000  1.0
  C  C163  1  0.01330000  0.64440000  0.29370000  1.0
  C  C164  1  0.96410000  0.64270000  0.27620000  1.0
  C  C165  1  0.96310000  0.67640000  0.20680000  1.0
  C  C166  1  0.00700000  0.70920000  0.15870000  1.0
  C  C167  1  0.90760000  0.67250000  0.18610000  1.0
  C  C168  1  0.97420000  0.57630000  0.40930000  1.0
  C  C169  1  0.98920000  0.53720000  0.45660000  1.0
  C  C170  1  0.86110000  0.47220000  0.19600000  1.0
  C  C171  1  0.83510000  0.45870000  0.11150000  1.0
  C  C172  1  0.81790000  0.49820000  0.06760000  1.0
  C  C173  1  0.64020000  0.89260000  0.12340000  1.0
  C  C174  1  0.65500000  0.94270000  0.17570000  1.0
  C  C175  1  0.61900000  0.93970000  0.24300000  1.0
  C  C176  1  0.63110000  0.98670000  0.29370000  1.0
  C  C177  1  0.67860000  0.03590000  0.27620000  1.0
  C  C178  1  0.71330000  0.03690000  0.20680000  1.0
  C  C179  1  0.70220000  0.99300000  0.15870000  1.0
  C  C180  1  0.76490000  0.09240000  0.18610000  1.0
  C  C181  1  0.60210000  0.02580000  0.40930000  1.0
  C  C182  1  0.54800000  0.01080000  0.45660000  1.0
  C  C183  1  0.61110000  0.13890000  0.19600000  1.0
  C  C184  1  0.62360000  0.16490000  0.11150000  1.0
  C  C185  1  0.68030000  0.18210000  0.06760000  1.0
  C  C186  1  0.64020000  0.74760000  0.12340000  1.0
  C  C187  1  0.65500000  0.71230000  0.17570000  1.0
  C  C188  1  0.61900000  0.67930000  0.24300000  1.0
  C  C189  1  0.63110000  0.64440000  0.29370000  1.0
  C  C190  1  0.67860000  0.64270000  0.27620000  1.0
  C  C191  1  0.71330000  0.67640000  0.20680000  1.0
  C  C192  1  0.70220000  0.70920000  0.15870000  1.0
  C  C193  1  0.76490000  0.67250000  0.18610000  1.0
  C  C194  1  0.60210000  0.57630000  0.40930000  1.0
  C  C195  1  0.54800000  0.53720000  0.45660000  1.0
  C  C196  1  0.61110000  0.47220000  0.19600000  1.0
  C  C197  1  0.62360000  0.45870000  0.11150000  1.0
  C  C198  1  0.68030000  0.49820000  0.06760000  1.0
  C  C199  1  0.25240000  0.89260000  0.12340000  1.0
  C  C200  1  0.28770000  0.94270000  0.17570000  1.0
  C  C201  1  0.32070000  0.93970000  0.24300000  1.0
  C  C202  1  0.35560000  0.98670000  0.29370000  1.0
  C  C203  1  0.35730000  0.03590000  0.27620000  1.0
  C  C204  1  0.32360000  0.03690000  0.20680000  1.0
  C  C205  1  0.29080000  0.99300000  0.15870000  1.0
  C  C206  1  0.32750000  0.09240000  0.18610000  1.0
  C  C207  1  0.42370000  0.02580000  0.40930000  1.0
  C  C208  1  0.46280000  0.01080000  0.45660000  1.0
  C  C209  1  0.52780000  0.13890000  0.19600000  1.0
  C  C210  1  0.54130000  0.16490000  0.11150000  1.0
  C  C211  1  0.50180000  0.18210000  0.06760000  1.0
  C  C212  1  0.10740000  0.35980000  0.12340000  1.0
  C  C213  1  0.05730000  0.34500000  0.17570000  1.0
  C  C214  1  0.06030000  0.38100000  0.24300000  1.0
  C  C215  1  0.01330000  0.36890000  0.29370000  1.0
  C  C216  1  0.96410000  0.32140000  0.27620000  1.0
  C  C217  1  0.96310000  0.28670000  0.20680000  1.0
  C  C218  1  0.00700000  0.29780000  0.15870000  1.0
  C  C219  1  0.90760000  0.23510000  0.18610000  1.0
  C  C220  1  0.97420000  0.39790000  0.40930000  1.0
  C  C221  1  0.98920000  0.45200000  0.45660000  1.0
  C  C222  1  0.86110000  0.38890000  0.19600000  1.0
  C  C223  1  0.83510000  0.37640000  0.11150000  1.0
  C  C224  1  0.81790000  0.31970000  0.06760000  1.0
  C  C225  1  0.74760000  0.64020000  0.87660000  1.0
  C  C226  1  0.71230000  0.65500000  0.82430000  1.0
  C  C227  1  0.67930000  0.61900000  0.75700000  1.0
  C  C228  1  0.64440000  0.63110000  0.70630000  1.0
  C  C229  1  0.64270000  0.67860000  0.72380000  1.0
  C  C230  1  0.67640000  0.71330000  0.79320000  1.0
  C  C231  1  0.70920000  0.70220000  0.84130000  1.0
  C  C232  1  0.67250000  0.76490000  0.81390000  1.0
  C  C233  1  0.57630000  0.60210000  0.59070000  1.0
  C  C234  1  0.53720000  0.54800000  0.54340000  1.0
  C  C235  1  0.47220000  0.61110000  0.80400000  1.0
  C  C236  1  0.45870000  0.62360000  0.88850000  1.0
  C  C237  1  0.49820000  0.68030000  0.93240000  1.0
  C  C238  1  0.89260000  0.25240000  0.87660000  1.0
  C  C239  1  0.94270000  0.28770000  0.82430000  1.0
  C  C240  1  0.93970000  0.32070000  0.75700000  1.0
  C  C241  1  0.98670000  0.35560000  0.70630000  1.0
  C  C242  1  0.03590000  0.35730000  0.72380000  1.0
  C  C243  1  0.03690000  0.32360000  0.79320000  1.0
  C  C244  1  0.99300000  0.29080000  0.84130000  1.0
  C  C245  1  0.09240000  0.32750000  0.81390000  1.0
  C  C246  1  0.02580000  0.42370000  0.59070000  1.0
  C  C247  1  0.01080000  0.46280000  0.54340000  1.0
  C  C248  1  0.13890000  0.52780000  0.80400000  1.0
  C  C249  1  0.16490000  0.54130000  0.88850000  1.0
  C  C250  1  0.18210000  0.50180000  0.93240000  1.0
  C  C251  1  0.35980000  0.10740000  0.87660000  1.0
  C  C252  1  0.34500000  0.05730000  0.82430000  1.0
  C  C253  1  0.38100000  0.06030000  0.75700000  1.0
  C  C254  1  0.36890000  0.01330000  0.70630000  1.0
  C  C255  1  0.32140000  0.96410000  0.72380000  1.0
  C  C256  1  0.28670000  0.96310000  0.79320000  1.0
  C  C257  1  0.29780000  0.00700000  0.84130000  1.0
  C  C258  1  0.23510000  0.90760000  0.81390000  1.0
  C  C259  1  0.39790000  0.97420000  0.59070000  1.0
  C  C260  1  0.45200000  0.98920000  0.54340000  1.0
  C  C261  1  0.38890000  0.86110000  0.80400000  1.0
  C  C262  1  0.37640000  0.83510000  0.88850000  1.0
  C  C263  1  0.31970000  0.81790000  0.93240000  1.0
  C  C264  1  0.48931000  0.51069000  0.58710000  1.0
  C  C265  1  0.47885000  0.52115000  0.68350000  1.0
  C  C266  1  0.43697000  0.56303000  0.76460000  1.0
  C  C267  1  0.41116000  0.58884000  0.93140000  1.0
  C  C268  1  0.48931000  0.97862000  0.58710000  1.0
  C  C269  1  0.47885000  0.95770000  0.68350000  1.0
  C  C270  1  0.43697000  0.87394000  0.76460000  1.0
  C  C271  1  0.41116000  0.82232000  0.93140000  1.0
  C  C272  1  0.02138000  0.51069000  0.58710000  1.0
  C  C273  1  0.04230000  0.52115000  0.68350000  1.0
  C  C274  1  0.12606000  0.56303000  0.76460000  1.0
  C  C275  1  0.17768000  0.58884000  0.93140000  1.0
  C  C276  1  0.51069000  0.48931000  0.41290000  1.0
  C  C277  1  0.52115000  0.47885000  0.31650000  1.0
  C  C278  1  0.56303000  0.43697000  0.23540000  1.0
  C  C279  1  0.58884000  0.41116000  0.06860000  1.0
  C  C280  1  0.97862000  0.48931000  0.41290000  1.0
  C  C281  1  0.95770000  0.47885000  0.31650000  1.0
  C  C282  1  0.87394000  0.43697000  0.23540000  1.0
  C  C283  1  0.82232000  0.41116000  0.06860000  1.0
  C  C284  1  0.51069000  0.02138000  0.41290000  1.0
  C  C285  1  0.52115000  0.04230000  0.31650000  1.0
  C  C286  1  0.56303000  0.12606000  0.23540000  1.0
  C  C287  1  0.58884000  0.17768000  0.06860000  1.0
  O  O288  1  0.32100000  0.21530000  0.92460000  1.0
  O  O289  1  0.40615000  0.25889000  0.87050000  1.0
  O  O290  1  0.20614000  0.29967000  0.87860000  1.0
  O  O291  1  0.22570000  0.35760000  0.76200000  1.0
  O  O292  1  0.40762000  0.38633000  0.64220000  1.0
  O  O293  1  0.29080000  0.45980000  0.88170000  1.0
  O  O294  1  0.30714000  0.50780000  0.00360000  1.0
  O  O295  1  0.78470000  0.10570000  0.92460000  1.0
  O  O296  1  0.74111000  0.14726000  0.87050000  1.0
  O  O297  1  0.70033000  0.90647000  0.87860000  1.0
  O  O298  1  0.64240000  0.86810000  0.76200000  1.0
  O  O299  1  0.61367000  0.02129000  0.64220000  1.0
  O  O300  1  0.54020000  0.83100000  0.88170000  1.0
  O  O301  1  0.49220000  0.79934000  0.00360000  1.0
  O  O302  1  0.89430000  0.67900000  0.92460000  1.0
  O  O303  1  0.85274000  0.59385000  0.87050000  1.0
  O  O304  1  0.09353000  0.79386000  0.87860000  1.0
  O  O305  1  0.13190000  0.77430000  0.76200000  1.0
  O  O306  1  0.97871000  0.59238000  0.64220000  1.0
  O  O307  1  0.16900000  0.70920000  0.88170000  1.0
  O  O308  1  0.20066000  0.69286000  0.00360000  1.0
  O  O309  1  0.21530000  0.32100000  0.07540000  1.0
  O  O310  1  0.25889000  0.40615000  0.12950000  1.0
  O  O311  1  0.29967000  0.20614000  0.12140000  1.0
  O  O312  1  0.35760000  0.22570000  0.23800000  1.0
  O  O313  1  0.38633000  0.40762000  0.35780000  1.0
  O  O314  1  0.45980000  0.29080000  0.11830000  1.0
  O  O315  1  0.50780000  0.30714000  0.99640000  1.0
  O  O316  1  0.10570000  0.78470000  0.07540000  1.0
  O  O317  1  0.14726000  0.74111000  0.12950000  1.0
  O  O318  1  0.90647000  0.70033000  0.12140000  1.0
  O  O319  1  0.86810000  0.64240000  0.23800000  1.0
  O  O320  1  0.02129000  0.61367000  0.35780000  1.0
  O  O321  1  0.83100000  0.54020000  0.11830000  1.0
  O  O322  1  0.79934000  0.49220000  0.99640000  1.0
  O  O323  1  0.67900000  0.89430000  0.07540000  1.0
  O  O324  1  0.59385000  0.85274000  0.12950000  1.0
  O  O325  1  0.79386000  0.09353000  0.12140000  1.0
  O  O326  1  0.77430000  0.13190000  0.23800000  1.0
  O  O327  1  0.59238000  0.97871000  0.35780000  1.0
  O  O328  1  0.70920000  0.16900000  0.11830000  1.0
  O  O329  1  0.69286000  0.20066000  0.99640000  1.0
  O  O330  1  0.67900000  0.78470000  0.07540000  1.0
  O  O331  1  0.59385000  0.74111000  0.12950000  1.0
  O  O332  1  0.79386000  0.70033000  0.12140000  1.0
  O  O333  1  0.77430000  0.64240000  0.23800000  1.0
  O  O334  1  0.59238000  0.61367000  0.35780000  1.0
  O  O335  1  0.70920000  0.54020000  0.11830000  1.0
  O  O336  1  0.69286000  0.49220000  0.99640000  1.0
  O  O337  1  0.21530000  0.89430000  0.07540000  1.0
  O  O338  1  0.25889000  0.85274000  0.12950000  1.0
  O  O339  1  0.29967000  0.09353000  0.12140000  1.0
  O  O340  1  0.35760000  0.13190000  0.23800000  1.0
  O  O341  1  0.38633000  0.97871000  0.35780000  1.0
  O  O342  1  0.45980000  0.16900000  0.11830000  1.0
  O  O343  1  0.50780000  0.20066000  0.99640000  1.0
  O  O344  1  0.10570000  0.32100000  0.07540000  1.0
  O  O345  1  0.14726000  0.40615000  0.12950000  1.0
  O  O346  1  0.90647000  0.20614000  0.12140000  1.0
  O  O347  1  0.86810000  0.22570000  0.23800000  1.0
  O  O348  1  0.02129000  0.40762000  0.35780000  1.0
  O  O349  1  0.83100000  0.29080000  0.11830000  1.0
  O  O350  1  0.79934000  0.30714000  0.99640000  1.0
  O  O351  1  0.78470000  0.67900000  0.92460000  1.0
  O  O352  1  0.74111000  0.59385000  0.87050000  1.0
  O  O353  1  0.70033000  0.79386000  0.87860000  1.0
  O  O354  1  0.64240000  0.77430000  0.76200000  1.0
  O  O355  1  0.61367000  0.59238000  0.64220000  1.0
  O  O356  1  0.54020000  0.70920000  0.88170000  1.0
  O  O357  1  0.49220000  0.69286000  0.00360000  1.0
  O  O358  1  0.89430000  0.21530000  0.92460000  1.0
  O  O359  1  0.85274000  0.25889000  0.87050000  1.0
  O  O360  1  0.09353000  0.29967000  0.87860000  1.0
  O  O361  1  0.13190000  0.35760000  0.76200000  1.0
  O  O362  1  0.97871000  0.38633000  0.64220000  1.0
  O  O363  1  0.16900000  0.45980000  0.88170000  1.0
  O  O364  1  0.20066000  0.50780000  0.00360000  1.0
  O  O365  1  0.32100000  0.10570000  0.92460000  1.0
  O  O366  1  0.40615000  0.14726000  0.87050000  1.0
  O  O367  1  0.20614000  0.90647000  0.87860000  1.0
  O  O368  1  0.22570000  0.86810000  0.76200000  1.0
  O  O369  1  0.40762000  0.02129000  0.64220000  1.0
  O  O370  1  0.29080000  0.83100000  0.88170000  1.0
  O  O371  1  0.30714000  0.79934000  0.00360000  1.0
  O  O372  1  0.39823000  0.19911000  0.04790000  1.0
  O  O373  1  0.80089000  0.19912000  0.04790000  1.0
  O  O374  1  0.80088000  0.60177000  0.04790000  1.0
  O  O375  1  0.19911000  0.39823000  0.95210000  1.0
  O  O376  1  0.19912000  0.80089000  0.95210000  1.0
  O  O377  1  0.60177000  0.80088000  0.95210000  1.0
  O  O378  1  0.44945000  0.55055000  0.67760000  1.0
  O  O379  1  0.44945000  0.89890000  0.67760000  1.0
  O  O380  1  0.10110000  0.55055000  0.67760000  1.0
  O  O381  1  0.55055000  0.44945000  0.32240000  1.0
  O  O382  1  0.89890000  0.44945000  0.32240000  1.0
  O  O383  1  0.55055000  0.10110000  0.32240000  1.0
