# generated using pymatgen
data_Ga12H18C54O49
_symmetry_space_group_name_H-M   'P 1'
_cell_length_a   14.56650000
_cell_length_b   14.56650000
_cell_length_c   31.68350000
_cell_angle_alpha   90.00000000
_cell_angle_beta   90.00000000
_cell_angle_gamma   120.00000000
_symmetry_Int_Tables_number   1
_chemical_formula_structural   Ga12H18C54O49
_chemical_formula_sum   'Ga24 H36 C108 O98'
_cell_volume   5822.02691838
_cell_formula_units_Z   2
loop_
 _symmetry_equiv_pos_site_id
 _symmetry_equiv_pos_as_xyz
  1  'x, y, z'
loop_
 _atom_site_type_symbol
 _atom_site_label
 _atom_site_symmetry_multiplicity
 _atom_site_fract_x
 _atom_site_fract_y
 _atom_site_fract_z
 _atom_site_occupancy
  Ga  Ga0  1  0.92568000  0.07432000  0.25000000  1.0
  Ga  Ga1  1  0.14864000  0.07432000  0.25000000  1.0
  Ga  Ga2  1  0.92568000  0.85136000  0.25000000  1.0
  Ga  Ga3  1  0.07432000  0.92568000  0.75000000  1.0
  Ga  Ga4  1  0.85136000  0.92568000  0.75000000  1.0
  Ga  Ga5  1  0.07432000  0.14864000  0.75000000  1.0
  Ga  Ga6  1  0.58325000  0.16650000  0.41509000  1.0
  Ga  Ga7  1  0.58325000  0.41674000  0.41509000  1.0
  Ga  Ga8  1  0.83349000  0.41674000  0.41509000  1.0
  Ga  Ga9  1  0.41675000  0.83350000  0.91509000  1.0
  Ga  Ga10  1  0.41675000  0.58326000  0.91509000  1.0
  Ga  Ga11  1  0.16651000  0.58326000  0.91509000  1.0
  Ga  Ga12  1  0.41675000  0.83350000  0.58491000  1.0
  Ga  Ga13  1  0.16651000  0.58326000  0.58491000  1.0
  Ga  Ga14  1  0.41675000  0.58326000  0.58491000  1.0
  Ga  Ga15  1  0.58325000  0.16650000  0.08491000  1.0
  Ga  Ga16  1  0.83349000  0.41674000  0.08491000  1.0
  Ga  Ga17  1  0.58325000  0.41674000  0.08491000  1.0
  Ga  Ga18  1  0.50000000  0.00000000  0.50000000  1.0
  Ga  Ga19  1  0.50000000  0.50000000  0.50000000  1.0
  Ga  Ga20  1  0.00000000  0.50000000  0.50000000  1.0
  Ga  Ga21  1  0.50000000  0.00000000  0.00000000  1.0
  Ga  Ga22  1  0.50000000  0.50000000  0.00000000  1.0
  Ga  Ga23  1  0.00000000  0.50000000  0.00000000  1.0
  H  H24  1  0.72340000  0.00000000  0.35520000  1.0
  H  H25  1  0.27660000  0.27660000  0.35520000  1.0
  H  H26  1  0.00000000  0.72340000  0.35520000  1.0
  H  H27  1  0.27660000  0.00000000  0.85520000  1.0
  H  H28  1  0.72340000  0.72340000  0.85520000  1.0
  H  H29  1  0.00000000  0.27660000  0.85520000  1.0
  H  H30  1  0.72340000  0.00000000  0.64480000  1.0
  H  H31  1  0.00000000  0.72340000  0.64480000  1.0
  H  H32  1  0.27660000  0.27660000  0.64480000  1.0
  H  H33  1  0.27660000  0.00000000  0.14480000  1.0
  H  H34  1  0.00000000  0.27660000  0.14480000  1.0
  H  H35  1  0.72340000  0.72340000  0.14480000  1.0
  H  H36  1  0.27660000  0.00000000  0.64480000  1.0
  H  H37  1  0.72340000  0.72340000  0.64480000  1.0
  H  H38  1  0.00000000  0.27660000  0.64480000  1.0
  H  H39  1  0.72340000  0.00000000  0.14480000  1.0
  H  H40  1  0.27660000  0.27660000  0.14480000  1.0
  H  H41  1  0.00000000  0.72340000  0.14480000  1.0
  H  H42  1  0.27660000  0.00000000  0.35520000  1.0
  H  H43  1  0.00000000  0.27660000  0.35520000  1.0
  H  H44  1  0.72340000  0.72340000  0.35520000  1.0
  H  H45  1  0.72340000  0.00000000  0.85520000  1.0
  H  H46  1  0.00000000  0.72340000  0.85520000  1.0
  H  H47  1  0.27660000  0.27660000  0.85520000  1.0
  H  H48  1  0.57490000  0.78745000  0.44770000  1.0
  H  H49  1  0.21255000  0.42510000  0.44770000  1.0
  H  H50  1  0.21255000  0.78745000  0.44770000  1.0
  H  H51  1  0.42510000  0.21255000  0.94770000  1.0
  H  H52  1  0.78745000  0.57490000  0.94770000  1.0
  H  H53  1  0.78745000  0.21255000  0.94770000  1.0
  H  H54  1  0.78745000  0.21255000  0.55230000  1.0
  H  H55  1  0.78745000  0.57490000  0.55230000  1.0
  H  H56  1  0.42510000  0.21255000  0.55230000  1.0
  H  H57  1  0.21255000  0.78745000  0.05230000  1.0
  H  H58  1  0.21255000  0.42510000  0.05230000  1.0
  H  H59  1  0.57490000  0.78745000  0.05230000  1.0
  C  C60  1  0.61050000  0.97520000  0.42500000  1.0
  C  C61  1  0.70440000  0.93510000  0.36780000  1.0
  C  C62  1  0.64600000  0.90570000  0.40510000  1.0
  C  C63  1  0.36470000  0.38950000  0.42500000  1.0
  C  C64  1  0.23070000  0.29560000  0.36780000  1.0
  C  C65  1  0.25970000  0.35400000  0.40510000  1.0
  C  C66  1  0.02480000  0.63530000  0.42500000  1.0
  C  C67  1  0.06490000  0.76930000  0.36780000  1.0
  C  C68  1  0.09430000  0.74030000  0.40510000  1.0
  C  C69  1  0.38950000  0.02480000  0.92500000  1.0
  C  C70  1  0.29560000  0.06490000  0.86780000  1.0
  C  C71  1  0.35400000  0.09430000  0.90510000  1.0
  C  C72  1  0.63530000  0.61050000  0.92500000  1.0
  C  C73  1  0.76930000  0.70440000  0.86780000  1.0
  C  C74  1  0.74030000  0.64600000  0.90510000  1.0
  C  C75  1  0.97520000  0.36470000  0.92500000  1.0
  C  C76  1  0.93510000  0.23070000  0.86780000  1.0
  C  C77  1  0.90570000  0.25970000  0.90510000  1.0
  C  C78  1  0.63530000  0.02480000  0.57500000  1.0
  C  C79  1  0.76930000  0.06490000  0.63220000  1.0
  C  C80  1  0.74030000  0.09430000  0.59490000  1.0
  C  C81  1  0.97520000  0.61050000  0.57500000  1.0
  C  C82  1  0.93510000  0.70440000  0.63220000  1.0
  C  C83  1  0.90570000  0.64600000  0.59490000  1.0
  C  C84  1  0.38950000  0.36470000  0.57500000  1.0
  C  C85  1  0.29560000  0.23070000  0.63220000  1.0
  C  C86  1  0.35400000  0.25970000  0.59490000  1.0
  C  C87  1  0.36470000  0.97520000  0.07500000  1.0
  C  C88  1  0.23070000  0.93510000  0.13220000  1.0
  C  C89  1  0.25970000  0.90570000  0.09490000  1.0
  C  C90  1  0.02480000  0.38950000  0.07500000  1.0
  C  C91  1  0.06490000  0.29560000  0.13220000  1.0
  C  C92  1  0.09430000  0.35400000  0.09490000  1.0
  C  C93  1  0.61050000  0.63530000  0.07500000  1.0
  C  C94  1  0.70440000  0.76930000  0.13220000  1.0
  C  C95  1  0.64600000  0.74030000  0.09490000  1.0
  C  C96  1  0.38950000  0.02480000  0.57500000  1.0
  C  C97  1  0.29560000  0.06490000  0.63220000  1.0
  C  C98  1  0.35400000  0.09430000  0.59490000  1.0
  C  C99  1  0.63530000  0.61050000  0.57500000  1.0
  C  C100  1  0.76930000  0.70440000  0.63220000  1.0
  C  C101  1  0.74030000  0.64600000  0.59490000  1.0
  C  C102  1  0.97520000  0.36470000  0.57500000  1.0
  C  C103  1  0.93510000  0.23070000  0.63220000  1.0
  C  C104  1  0.90570000  0.25970000  0.59490000  1.0
  C  C105  1  0.61050000  0.97520000  0.07500000  1.0
  C  C106  1  0.70440000  0.93510000  0.13220000  1.0
  C  C107  1  0.64600000  0.90570000  0.09490000  1.0
  C  C108  1  0.36470000  0.38950000  0.07500000  1.0
  C  C109  1  0.23070000  0.29560000  0.13220000  1.0
  C  C110  1  0.25970000  0.35400000  0.09490000  1.0
  C  C111  1  0.02480000  0.63530000  0.07500000  1.0
  C  C112  1  0.06490000  0.76930000  0.13220000  1.0
  C  C113  1  0.09430000  0.74030000  0.09490000  1.0
  C  C114  1  0.36470000  0.97520000  0.42500000  1.0
  C  C115  1  0.23070000  0.93510000  0.36780000  1.0
  C  C116  1  0.25970000  0.90570000  0.40510000  1.0
  C  C117  1  0.02480000  0.38950000  0.42500000  1.0
  C  C118  1  0.06490000  0.29560000  0.36780000  1.0
  C  C119  1  0.09430000  0.35400000  0.40510000  1.0
  C  C120  1  0.61050000  0.63530000  0.42500000  1.0
  C  C121  1  0.70440000  0.76930000  0.36780000  1.0
  C  C122  1  0.64600000  0.74030000  0.40510000  1.0
  C  C123  1  0.63530000  0.02480000  0.92500000  1.0
  C  C124  1  0.76930000  0.06490000  0.86780000  1.0
  C  C125  1  0.74030000  0.09430000  0.90510000  1.0
  C  C126  1  0.97520000  0.61050000  0.92500000  1.0
  C  C127  1  0.93510000  0.70440000  0.86780000  1.0
  C  C128  1  0.90570000  0.64600000  0.90510000  1.0
  C  C129  1  0.38950000  0.36470000  0.92500000  1.0
  C  C130  1  0.29560000  0.23070000  0.86780000  1.0
  C  C131  1  0.35400000  0.25970000  0.90510000  1.0
  C  C132  1  0.79950000  0.89975000  0.30950000  1.0
  C  C133  1  0.73440000  0.86720000  0.34930000  1.0
  C  C134  1  0.61560000  0.80780000  0.42330000  1.0
  C  C135  1  0.10025000  0.20050000  0.30950000  1.0
  C  C136  1  0.13280000  0.26560000  0.34930000  1.0
  C  C137  1  0.19220000  0.38440000  0.42330000  1.0
  C  C138  1  0.10025000  0.89975000  0.30950000  1.0
  C  C139  1  0.13280000  0.86720000  0.34930000  1.0
  C  C140  1  0.19220000  0.80780000  0.42330000  1.0
  C  C141  1  0.20050000  0.10025000  0.80950000  1.0
  C  C142  1  0.26560000  0.13280000  0.84930000  1.0
  C  C143  1  0.38440000  0.19220000  0.92330000  1.0
  C  C144  1  0.89975000  0.79950000  0.80950000  1.0
  C  C145  1  0.86720000  0.73440000  0.84930000  1.0
  C  C146  1  0.80780000  0.61560000  0.92330000  1.0
  C  C147  1  0.89975000  0.10025000  0.80950000  1.0
  C  C148  1  0.86720000  0.13280000  0.84930000  1.0
  C  C149  1  0.80780000  0.19220000  0.92330000  1.0
  C  C150  1  0.89975000  0.10025000  0.69050000  1.0
  C  C151  1  0.86720000  0.13280000  0.65070000  1.0
  C  C152  1  0.80780000  0.19220000  0.57670000  1.0
  C  C153  1  0.89975000  0.79950000  0.69050000  1.0
  C  C154  1  0.86720000  0.73440000  0.65070000  1.0
  C  C155  1  0.80780000  0.61560000  0.57670000  1.0
  C  C156  1  0.20050000  0.10025000  0.69050000  1.0
  C  C157  1  0.26560000  0.13280000  0.65070000  1.0
  C  C158  1  0.38440000  0.19220000  0.57670000  1.0
  C  C159  1  0.10025000  0.89975000  0.19050000  1.0
  C  C160  1  0.13280000  0.86720000  0.15070000  1.0
  C  C161  1  0.19220000  0.80780000  0.07670000  1.0
  C  C162  1  0.10025000  0.20050000  0.19050000  1.0
  C  C163  1  0.13280000  0.26560000  0.15070000  1.0
  C  C164  1  0.19220000  0.38440000  0.07670000  1.0
  C  C165  1  0.79950000  0.89975000  0.19050000  1.0
  C  C166  1  0.73440000  0.86720000  0.15070000  1.0
  C  C167  1  0.61560000  0.80780000  0.07670000  1.0
  O  O168  1  0.82470000  0.98950000  0.29512000  1.0
  O  O169  1  0.62330000  0.05500000  0.40455000  1.0
  O  O170  1  0.57080000  0.94890000  0.46110000  1.0
  O  O171  1  0.16480000  0.17530000  0.29512000  1.0
  O  O172  1  0.43170000  0.37670000  0.40455000  1.0
  O  O173  1  0.37810000  0.42920000  0.46110000  1.0
  O  O174  1  0.01050000  0.83520000  0.29512000  1.0
  O  O175  1  0.94500000  0.56830000  0.40455000  1.0
  O  O176  1  0.05110000  0.62190000  0.46110000  1.0
  O  O177  1  0.17530000  0.01050000  0.79512000  1.0
  O  O178  1  0.37670000  0.94500000  0.90455000  1.0
  O  O179  1  0.42920000  0.05110000  0.96110000  1.0
  O  O180  1  0.83520000  0.82470000  0.79512000  1.0
  O  O181  1  0.56830000  0.62330000  0.90455000  1.0
  O  O182  1  0.62190000  0.57080000  0.96110000  1.0
  O  O183  1  0.98950000  0.16480000  0.79512000  1.0
  O  O184  1  0.05500000  0.43170000  0.90455000  1.0
  O  O185  1  0.94890000  0.37810000  0.96110000  1.0
  O  O186  1  0.83520000  0.01050000  0.70488000  1.0
  O  O187  1  0.56830000  0.94500000  0.59545000  1.0
  O  O188  1  0.62190000  0.05110000  0.53890000  1.0
  O  O189  1  0.98950000  0.82470000  0.70488000  1.0
  O  O190  1  0.05500000  0.62330000  0.59545000  1.0
  O  O191  1  0.94890000  0.57080000  0.53890000  1.0
  O  O192  1  0.17530000  0.16480000  0.70488000  1.0
  O  O193  1  0.37670000  0.43170000  0.59545000  1.0
  O  O194  1  0.42920000  0.37810000  0.53890000  1.0
  O  O195  1  0.16480000  0.98950000  0.20488000  1.0
  O  O196  1  0.43170000  0.05500000  0.09545000  1.0
  O  O197  1  0.37810000  0.94890000  0.03890000  1.0
  O  O198  1  0.01050000  0.17530000  0.20488000  1.0
  O  O199  1  0.94500000  0.37670000  0.09545000  1.0
  O  O200  1  0.05110000  0.42920000  0.03890000  1.0
  O  O201  1  0.82470000  0.83520000  0.20488000  1.0
  O  O202  1  0.62330000  0.56830000  0.09545000  1.0
  O  O203  1  0.57080000  0.62190000  0.03890000  1.0
  O  O204  1  0.17530000  0.01050000  0.70488000  1.0
  O  O205  1  0.37670000  0.94500000  0.59545000  1.0
  O  O206  1  0.42920000  0.05110000  0.53890000  1.0
  O  O207  1  0.83520000  0.82470000  0.70488000  1.0
  O  O208  1  0.56830000  0.62330000  0.59545000  1.0
  O  O209  1  0.62190000  0.57080000  0.53890000  1.0
  O  O210  1  0.98950000  0.16480000  0.70488000  1.0
  O  O211  1  0.05500000  0.43170000  0.59545000  1.0
  O  O212  1  0.94890000  0.37810000  0.53890000  1.0
  O  O213  1  0.82470000  0.98950000  0.20488000  1.0
  O  O214  1  0.62330000  0.05500000  0.09545000  1.0
  O  O215  1  0.57080000  0.94890000  0.03890000  1.0
  O  O216  1  0.16480000  0.17530000  0.20488000  1.0
  O  O217  1  0.43170000  0.37670000  0.09545000  1.0
  O  O218  1  0.37810000  0.42920000  0.03890000  1.0
  O  O219  1  0.01050000  0.83520000  0.20488000  1.0
  O  O220  1  0.94500000  0.56830000  0.09545000  1.0
  O  O221  1  0.05110000  0.62190000  0.03890000  1.0
  O  O222  1  0.16480000  0.98950000  0.29512000  1.0
  O  O223  1  0.43170000  0.05500000  0.40455000  1.0
  O  O224  1  0.37810000  0.94890000  0.46110000  1.0
  O  O225  1  0.01050000  0.17530000  0.29512000  1.0
  O  O226  1  0.94500000  0.37670000  0.40455000  1.0
  O  O227  1  0.05110000  0.42920000  0.46110000  1.0
  O  O228  1  0.82470000  0.83520000  0.29512000  1.0
  O  O229  1  0.62330000  0.56830000  0.40455000  1.0
  O  O230  1  0.57080000  0.62190000  0.46110000  1.0
  O  O231  1  0.83520000  0.01050000  0.79512000  1.0
  O  O232  1  0.56830000  0.94500000  0.90455000  1.0
  O  O233  1  0.62190000  0.05110000  0.96110000  1.0
  O  O234  1  0.98950000  0.82470000  0.79512000  1.0
  O  O235  1  0.05500000  0.62330000  0.90455000  1.0
  O  O236  1  0.94890000  0.57080000  0.96110000  1.0
  O  O237  1  0.17530000  0.16480000  0.79512000  1.0
  O  O238  1  0.37670000  0.43170000  0.90455000  1.0
  O  O239  1  0.42920000  0.37810000  0.96110000  1.0
  O  O240  1  0.56860000  0.13720000  0.47450000  1.0
  O  O241  1  0.56860000  0.43140000  0.47450000  1.0
  O  O242  1  0.86280000  0.43140000  0.47450000  1.0
  O  O243  1  0.43140000  0.86280000  0.97450000  1.0
  O  O244  1  0.43140000  0.56860000  0.97450000  1.0
  O  O245  1  0.13720000  0.56860000  0.97450000  1.0
  O  O246  1  0.43140000  0.86280000  0.52550000  1.0
  O  O247  1  0.13720000  0.56860000  0.52550000  1.0
  O  O248  1  0.43140000  0.56860000  0.52550000  1.0
  O  O249  1  0.56860000  0.13720000  0.02550000  1.0
  O  O250  1  0.86280000  0.43140000  0.02550000  1.0
  O  O251  1  0.56860000  0.43140000  0.02550000  1.0
  O  O252  1  0.00000000  0.00000000  0.25000000  1.0
  O  O253  1  0.00000000  0.00000000  0.75000000  1.0
  O  O254  1  0.53600000  0.26800000  0.41860000  1.0
  O  O255  1  0.73200000  0.46400000  0.41860000  1.0
  O  O256  1  0.73200000  0.26800000  0.41860000  1.0
  O  O257  1  0.46400000  0.73200000  0.91860000  1.0
  O  O258  1  0.26800000  0.53600000  0.91860000  1.0
  O  O259  1  0.26800000  0.73200000  0.91860000  1.0
  O  O260  1  0.26800000  0.73200000  0.58140000  1.0
  O  O261  1  0.26800000  0.53600000  0.58140000  1.0
  O  O262  1  0.46400000  0.73200000  0.58140000  1.0
  O  O263  1  0.73200000  0.26800000  0.08140000  1.0
  O  O264  1  0.73200000  0.46400000  0.08140000  1.0
  O  O265  1  0.53600000  0.26800000  0.08140000  1.0
