# generated using pymatgen
data_Zn4H18C36N2O17
_symmetry_space_group_name_H-M   'P 1'
_cell_length_a   10.29700000
_cell_length_b   30.56350000
_cell_length_c   30.92620000
_cell_angle_alpha   90.00000000
_cell_angle_beta   90.00000000
_cell_angle_gamma   91.46800000
_symmetry_Int_Tables_number   1
_chemical_formula_structural   Zn4H18C36N2O17
_chemical_formula_sum   'Zn16 H72 C144 N8 O68'
_cell_volume   9729.66294181
_cell_formula_units_Z   4
loop_
 _symmetry_equiv_pos_site_id
 _symmetry_equiv_pos_as_xyz
  1  'x, y, z'
loop_
 _atom_site_type_symbol
 _atom_site_label
 _atom_site_symmetry_multiplicity
 _atom_site_fract_x
 _atom_site_fract_y
 _atom_site_fract_z
 _atom_site_occupancy
  Zn  Zn0  1  0.16829000  0.32186000  0.32687000  1.0
  Zn  Zn1  1  0.47659000  0.16317000  0.91754000  1.0
  Zn  Zn2  1  0.47320000  0.08992000  0.84202000  1.0
  Zn  Zn3  1  0.97659000  0.66317000  0.58246000  1.0
  Zn  Zn4  1  0.12534000  0.68168000  0.66954000  1.0
  Zn  Zn5  1  0.37466000  0.81832000  0.16954000  1.0
  Zn  Zn6  1  0.52680000  0.91008000  0.15798000  1.0
  Zn  Zn7  1  0.02680000  0.41008000  0.34202000  1.0
  Zn  Zn8  1  0.62534000  0.18168000  0.83046000  1.0
  Zn  Zn9  1  0.33171000  0.17814000  0.82687000  1.0
  Zn  Zn10  1  0.52341000  0.83683000  0.08246000  1.0
  Zn  Zn11  1  0.83171000  0.67814000  0.67313000  1.0
  Zn  Zn12  1  0.87466000  0.31832000  0.33046000  1.0
  Zn  Zn13  1  0.66829000  0.82186000  0.17313000  1.0
  Zn  Zn14  1  0.97320000  0.58992000  0.65798000  1.0
  Zn  Zn15  1  0.02341000  0.33683000  0.41754000  1.0
  H  H16  1  0.99700000  0.42750000  0.52020000  1.0
  H  H17  1  0.02690000  0.88270000  0.18400000  1.0
  H  H18  1  0.71230000  0.27620000  0.49890000  1.0
  H  H19  1  0.72300000  0.68600000  0.22500000  1.0
  H  H20  1  0.22300000  0.18600000  0.27500000  1.0
  H  H21  1  0.38860000  0.22590000  0.61740000  1.0
  H  H22  1  0.49700000  0.92750000  0.97980000  1.0
  H  H23  1  0.33870000  0.49020000  0.28110000  1.0
  H  H24  1  0.67670000  0.61410000  0.24940000  1.0
  H  H25  1  0.28770000  0.72380000  0.50110000  1.0
  H  H26  1  0.83870000  0.99020000  0.21890000  1.0
  H  H27  1  0.17750000  0.22030000  0.00060000  1.0
  H  H28  1  0.64370000  0.80190000  0.31240000  1.0
  H  H29  1  0.88900000  0.94440000  0.76970000  1.0
  H  H30  1  0.73090000  0.49270000  0.28430000  1.0
  H  H31  1  0.13160000  0.80990000  0.67070000  1.0
  H  H32  1  0.67750000  0.72030000  0.49940000  1.0
  H  H33  1  0.32250000  0.27970000  0.50060000  1.0
  H  H34  1  0.66130000  0.50980000  0.71890000  1.0
  H  H35  1  0.52690000  0.38270000  0.31600000  1.0
  H  H36  1  0.51800000  0.30660000  0.39000000  1.0
  H  H37  1  0.86840000  0.19010000  0.32930000  1.0
  H  H38  1  0.50300000  0.07250000  0.02020000  1.0
  H  H39  1  0.35630000  0.19810000  0.68760000  1.0
  H  H40  1  0.16130000  0.00980000  0.78110000  1.0
  H  H41  1  0.14370000  0.30190000  0.18760000  1.0
  H  H42  1  0.63160000  0.30990000  0.82930000  1.0
  H  H43  1  0.82330000  0.88590000  0.74940000  1.0
  H  H44  1  0.47310000  0.61730000  0.68400000  1.0
  H  H45  1  0.77380000  0.26590000  0.21580000  1.0
  H  H46  1  0.43330000  0.25780000  0.56090000  1.0
  H  H47  1  0.52110000  0.01820000  0.07220000  1.0
  H  H48  1  0.82250000  0.77970000  0.99940000  1.0
  H  H49  1  0.22620000  0.73410000  0.78420000  1.0
  H  H50  1  0.56670000  0.74220000  0.43910000  1.0
  H  H51  1  0.48200000  0.69340000  0.61000000  1.0
  H  H52  1  0.32430000  0.61830000  0.19410000  1.0
  H  H53  1  0.47890000  0.98180000  0.92780000  1.0
  H  H54  1  0.26910000  0.50730000  0.71570000  1.0
  H  H55  1  0.61100000  0.55560000  0.26970000  1.0
  H  H56  1  0.21230000  0.77620000  0.00110000  1.0
  H  H57  1  0.00300000  0.57250000  0.47980000  1.0
  H  H58  1  0.17570000  0.88170000  0.69410000  1.0
  H  H59  1  0.85630000  0.69810000  0.81240000  1.0
  H  H60  1  0.78770000  0.22380000  0.99890000  1.0
  H  H61  1  0.01800000  0.80660000  0.11000000  1.0
  H  H62  1  0.36840000  0.69010000  0.17070000  1.0
  H  H63  1  0.61140000  0.77410000  0.38260000  1.0
  H  H64  1  0.93330000  0.75780000  0.93910000  1.0
  H  H65  1  0.25450000  0.76100000  0.85320000  1.0
  H  H66  1  0.23090000  0.99270000  0.21570000  1.0
  H  H67  1  0.97310000  0.11730000  0.81600000  1.0
  H  H68  1  0.02110000  0.51820000  0.42780000  1.0
  H  H69  1  0.98200000  0.19340000  0.89000000  1.0
  H  H70  1  0.76910000  0.00730000  0.78430000  1.0
  H  H71  1  0.74550000  0.23900000  0.14680000  1.0
  H  H72  1  0.72620000  0.23410000  0.71580000  1.0
  H  H73  1  0.27700000  0.31400000  0.77500000  1.0
  H  H74  1  0.67570000  0.38170000  0.80590000  1.0
  H  H75  1  0.75450000  0.26100000  0.64680000  1.0
  H  H76  1  0.11140000  0.27410000  0.11740000  1.0
  H  H77  1  0.88860000  0.72590000  0.88260000  1.0
  H  H78  1  0.38900000  0.44440000  0.73030000  1.0
  H  H79  1  0.11100000  0.05560000  0.23030000  1.0
  H  H80  1  0.77700000  0.81400000  0.72500000  1.0
  H  H81  1  0.17670000  0.11410000  0.25060000  1.0
  H  H82  1  0.32330000  0.38590000  0.75060000  1.0
  H  H83  1  0.27380000  0.76590000  0.28420000  1.0
  H  H84  1  0.06670000  0.24220000  0.06090000  1.0
  H  H85  1  0.82430000  0.11830000  0.30590000  1.0
  H  H86  1  0.24550000  0.73900000  0.35320000  1.0
  H  H87  1  0.97890000  0.48180000  0.57220000  1.0
  C  C88  1  0.06990000  0.82491000  0.68633000  1.0
  C  C89  1  0.95220000  0.80533000  0.69596000  1.0
  C  C90  1  0.72170000  0.69441000  0.58113000  1.0
  C  C91  1  0.36430000  0.70701000  0.55937000  1.0
  C  C92  1  0.22170000  0.19441000  0.91887000  1.0
  C  C93  1  0.64300000  0.67252000  0.21916000  1.0
  C  C94  1  0.41590000  0.43337000  0.29943000  1.0
  C  C95  1  0.45220000  0.30533000  0.80404000  1.0
  C  C96  1  0.04400000  0.27278000  0.13740000  1.0
  C  C97  1  0.93580000  0.71060000  0.82051000  1.0
  C  C98  1  0.96560000  0.00186000  0.77776000  1.0
  C  C99  1  0.08340000  0.02389000  0.78544000  1.0
  C  C100  1  0.98120000  0.22560000  0.00595000  1.0
  C  C101  1  0.85310000  0.06622000  0.80095000  1.0
  C  C102  1  0.43450000  0.25991000  0.81885000  1.0
  C  C103  1  0.32470000  0.75172000  0.34500000  1.0
  C  C104  1  0.02930000  0.91171000  0.19304000  1.0
  C  C105  1  0.52790000  0.18653000  0.74950000  1.0
  C  C106  1  0.23880000  0.69988000  0.58363000  1.0
  C  C107  1  0.15820000  0.73243000  0.80399000  1.0
  C  C108  1  0.50370000  0.39097000  0.77592000  1.0
  C  C109  1  0.86430000  0.20701000  0.94063000  1.0
  C  C110  1  0.38490000  0.37092000  0.76640000  1.0
  C  C111  1  0.57350000  0.24520000  0.62570000  1.0
  C  C112  1  0.01860000  0.79959000  0.08075000  1.0
  C  C113  1  0.17530000  0.74828000  0.84500000  1.0
  C  C114  1  0.07350000  0.74520000  0.87430000  1.0
  C  C115  1  0.51090000  0.96765000  0.03180000  1.0
  C  C116  1  0.13570000  0.79299000  0.05937000  1.0
  C  C117  1  0.98090000  0.56813000  0.56454000  1.0
  C  C118  1  0.09940000  0.21733000  0.98564000  1.0
  C  C119  1  0.85700000  0.82748000  0.71916000  1.0
  C  C120  1  0.51860000  0.29959000  0.41925000  1.0
  C  C121  1  0.96210000  0.28640000  0.20821000  1.0
  C  C122  1  0.53790000  0.21360000  0.70821000  1.0
  C  C123  1  0.47070000  0.58829000  0.69304000  1.0
  C  C124  1  0.56990000  0.32491000  0.81367000  1.0
  C  C125  1  0.14690000  0.93378000  0.19905000  1.0
  C  C126  1  0.51260000  0.01046000  0.04323000  1.0
  C  C127  1  0.84180000  0.26757000  0.19601000  1.0
  C  C128  1  0.98740000  0.48954000  0.54323000  1.0
  C  C129  1  0.01910000  0.43187000  0.43546000  1.0
  C  C130  1  0.99630000  0.10903000  0.27592000  1.0
  C  C131  1  0.43010000  0.67509000  0.18633000  1.0
  C  C132  1  0.59610000  0.36819000  0.79950000  1.0
  C  C133  1  0.35310000  0.56622000  0.69905000  1.0
  C  C134  1  0.90310000  0.79551000  0.05786000  1.0
  C  C135  1  0.61510000  0.62908000  0.23360000  1.0
  C  C136  1  0.91590000  0.93337000  0.20057000  1.0
  C  C137  1  0.26120000  0.80012000  0.08363000  1.0
  C  C138  1  0.97210000  0.31347000  0.24950000  1.0
  C  C139  1  0.34180000  0.76757000  0.30399000  1.0
  C  C140  1  0.77830000  0.80559000  0.08113000  1.0
  C  C141  1  0.46190000  0.56296000  0.23773000  1.0
  C  C142  1  0.95600000  0.72722000  0.86260000  1.0
  C  C143  1  0.89930000  0.23790000  0.08049000  1.0
  C  C144  1  0.59690000  0.70449000  0.55786000  1.0
  C  C145  1  0.27830000  0.30559000  0.41887000  1.0
  C  C146  1  0.51880000  0.27440000  0.50595000  1.0
  C  C147  1  0.63440000  0.28041000  0.48445000  1.0
  C  C148  1  0.71100000  0.59119000  0.69182000  1.0
  C  C149  1  0.51910000  0.93187000  0.06454000  1.0
  C  C150  1  0.08410000  0.06663000  0.79943000  1.0
  C  C151  1  0.40310000  0.29551000  0.44214000  1.0
  C  C152  1  0.93450000  0.75991000  0.68115000  1.0
  C  C153  1  0.15170000  0.97757000  0.21283000  1.0
  C  C154  1  0.06420000  0.28940000  0.17949000  1.0
  C  C155  1  0.03440000  0.99814000  0.22224000  1.0
  C  C156  1  0.36560000  0.71959000  0.51555000  1.0
  C  C157  1  0.52930000  0.41171000  0.30696000  1.0
  C  C158  1  0.73880000  0.19988000  0.91637000  1.0
  C  C159  1  0.01880000  0.77440000  0.99405000  1.0
  C  C160  1  0.77110000  0.41092000  0.31328000  1.0
  C  C161  1  0.58410000  0.56663000  0.70057000  1.0
  C  C162  1  0.86560000  0.21959000  0.98445000  1.0
  C  C163  1  0.76120000  0.30012000  0.41637000  1.0
  C  C164  1  0.90060000  0.78267000  0.01436000  1.0
  C  C165  1  0.46210000  0.78640000  0.29179000  1.0
  C  C166  1  0.21100000  0.09119000  0.80818000  1.0
  C  C167  1  0.48090000  0.06813000  0.93546000  1.0
  C  C168  1  0.88490000  0.87092000  0.73360000  1.0
  C  C169  1  0.00370000  0.89097000  0.72408000  1.0
  C  C170  1  0.99820000  0.45679000  0.51189000  1.0
  C  C171  1  0.40060000  0.28267000  0.48564000  1.0
  C  C172  1  0.90390000  0.13181000  0.29950000  1.0
  C  C173  1  0.49630000  0.60903000  0.22408000  1.0
  C  C174  1  0.04780000  0.19467000  0.30404000  1.0
  C  C175  1  0.96190000  0.06296000  0.26227000  1.0
  C  C176  1  0.93010000  0.17509000  0.31367000  1.0
  C  C177  1  0.27110000  0.91092000  0.18672000  1.0
  C  C178  1  0.48140000  0.70041000  0.58075000  1.0
  C  C179  1  0.63570000  0.29299000  0.44063000  1.0
  C  C180  1  0.65170000  0.47757000  0.28717000  1.0
  C  C181  1  0.43580000  0.21060000  0.67949000  1.0
  C  C182  1  0.06550000  0.24009000  0.31885000  1.0
  C  C183  1  0.60070000  0.26210000  0.58049000  1.0
  C  C184  1  0.54780000  0.69467000  0.19596000  1.0
  C  C185  1  0.09610000  0.86819000  0.70050000  1.0
  C  C186  1  0.02790000  0.68653000  0.75050000  1.0
  C  C187  1  0.97070000  0.08829000  0.80696000  1.0
  C  C188  1  0.48740000  0.98954000  0.95677000  1.0
  C  C189  1  0.22890000  0.58908000  0.68672000  1.0
  C  C190  1  0.67530000  0.24828000  0.65500000  1.0
  C  C191  1  0.11510000  0.12908000  0.26640000  1.0
  C  C192  1  0.53440000  0.49814000  0.27776000  1.0
  C  C193  1  0.28900000  0.40881000  0.30818000  1.0
  C  C194  1  0.46560000  0.50186000  0.72224000  1.0
  C  C195  1  0.54400000  0.77278000  0.36260000  1.0
  C  C196  1  0.03810000  0.93704000  0.73773000  1.0
  C  C197  1  0.13440000  0.78041000  0.01555000  1.0
  C  C198  1  0.35700000  0.32748000  0.78084000  1.0
  C  C199  1  0.53810000  0.43704000  0.76227000  1.0
  C  C200  1  0.56420000  0.78940000  0.32051000  1.0
  C  C201  1  0.72890000  0.08908000  0.81328000  1.0
  C  C202  1  0.00180000  0.54321000  0.48811000  1.0
  C  C203  1  0.45600000  0.22722000  0.63740000  1.0
  C  C204  1  0.10070000  0.76210000  0.91951000  1.0
  C  C205  1  0.41660000  0.47611000  0.28544000  1.0
  C  C206  1  0.48910000  0.03235000  0.96820000  1.0
  C  C207  1  0.84830000  0.02243000  0.78717000  1.0
  C  C208  1  0.64690000  0.43378000  0.30095000  1.0
  C  C209  1  0.39930000  0.73790000  0.41951000  1.0
  C  C210  1  0.14300000  0.17252000  0.28084000  1.0
  C  C211  1  0.58340000  0.52389000  0.71456000  1.0
  C  C212  1  0.48120000  0.72560000  0.49405000  1.0
  C  C213  1  0.78900000  0.90881000  0.19182000  1.0
  C  C214  1  0.47210000  0.81347000  0.25050000  1.0
  C  C215  1  0.59940000  0.71733000  0.51436000  1.0
  C  C216  1  0.01260000  0.51046000  0.45677000  1.0
  C  C217  1  0.50180000  0.04321000  0.01189000  1.0
  C  C218  1  0.03790000  0.71360000  0.79179000  1.0
  C  C219  1  0.98910000  0.53235000  0.53180000  1.0
  C  C220  1  0.92650000  0.25480000  0.12570000  1.0
  C  C221  1  0.91660000  0.97611000  0.21456000  1.0
  C  C222  1  0.34830000  0.52243000  0.71283000  1.0
  C  C223  1  0.49820000  0.95679000  0.98811000  1.0
  C  C224  1  0.82470000  0.25172000  0.15500000  1.0
  C  C225  1  0.65820000  0.23243000  0.69601000  1.0
  C  C226  1  0.01090000  0.46765000  0.46820000  1.0
  C  C227  1  0.98140000  0.20041000  0.91925000  1.0
  C  C228  1  0.40390000  0.63181000  0.20050000  1.0
  C  C229  1  0.09690000  0.20449000  0.94214000  1.0
  C  C230  1  0.42650000  0.75480000  0.37430000  1.0
  C  C231  1  0.56550000  0.74009000  0.18115000  1.0
  N  N232  1  0.95790000  0.95895000  0.76208000  1.0
  N  N233  1  0.51040000  0.26383000  0.55165000  1.0
  N  N234  1  0.98960000  0.23617000  0.05165000  1.0
  N  N235  1  0.45790000  0.45895000  0.73792000  1.0
  N  N236  1  0.01040000  0.76383000  0.94835000  1.0
  N  N237  1  0.04210000  0.04105000  0.23792000  1.0
  N  N238  1  0.48960000  0.73617000  0.44835000  1.0
  N  N239  1  0.54210000  0.54105000  0.26208000  1.0
  O  O240  1  0.62450000  0.06729000  0.81279000  1.0
  O  O241  1  0.52290000  0.24584000  0.83857000  1.0
  O  O242  1  0.85400000  0.04512000  0.26877000  1.0
  O  O243  1  0.71330000  0.69032000  0.62041000  1.0
  O  O244  1  0.74200000  0.12818000  0.82147000  1.0
  O  O245  1  0.47680000  0.15091000  0.85663000  1.0
  O  O246  1  0.20750000  0.77763000  0.93122000  1.0
  O  O247  1  0.21330000  0.19032000  0.87959000  1.0
  O  O248  1  0.87000000  0.30225000  0.26955000  1.0
  O  O249  1  0.97710000  0.25416000  0.33857000  1.0
  O  O250  1  0.87550000  0.43271000  0.31279000  1.0
  O  O251  1  0.02320000  0.34909000  0.35663000  1.0
  O  O252  1  0.79250000  0.22237000  0.06878000  1.0
  O  O253  1  0.70750000  0.27763000  0.56878000  1.0
  O  O254  1  0.37550000  0.93271000  0.18721000  1.0
  O  O255  1  0.25800000  0.87182000  0.17853000  1.0
  O  O256  1  0.82240000  0.69082000  0.55853000  1.0
  O  O257  1  0.75800000  0.37182000  0.32147000  1.0
  O  O258  1  0.13880000  0.69247000  0.56228000  1.0
  O  O259  1  0.86120000  0.30753000  0.43772000  1.0
  O  O260  1  0.93410000  0.66698000  0.73649000  1.0
  O  O261  1  0.24200000  0.62818000  0.67853000  1.0
  O  O262  1  0.74900000  0.20139000  0.87594000  1.0
  O  O263  1  0.16660000  0.26156000  0.30895000  1.0
  O  O264  1  0.14600000  0.95488000  0.73123000  1.0
  O  O265  1  0.37000000  0.80225000  0.23045000  1.0
  O  O266  1  0.63880000  0.19247000  0.93772000  1.0
  O  O267  1  0.12450000  0.56729000  0.68721000  1.0
  O  O268  1  0.02680000  0.44313000  0.39703000  1.0
  O  O269  1  0.28670000  0.30968000  0.37959000  1.0
  O  O270  1  0.29390000  0.36797000  0.30786000  1.0
  O  O271  1  0.35400000  0.54512000  0.23123000  1.0
  O  O272  1  0.01760000  0.39315000  0.44887000  1.0
  O  O273  1  0.79390000  0.86797000  0.19214000  1.0
  O  O274  1  0.63000000  0.19775000  0.76955000  1.0
  O  O275  1  0.13000000  0.69775000  0.73045000  1.0
  O  O276  1  0.24900000  0.70139000  0.62406000  1.0
  O  O277  1  0.47710000  0.75416000  0.16143000  1.0
  O  O278  1  0.32240000  0.19082000  0.94147000  1.0
  O  O279  1  0.17760000  0.30918000  0.44147000  1.0
  O  O280  1  0.25100000  0.79861000  0.12406000  1.0
  O  O281  1  0.66666667  0.76156000  0.19105000  1.0
  O  O282  1  0.75100000  0.29861000  0.37594000  1.0
  O  O283  1  0.31180000  0.06924000  0.81430000  1.0
  O  O284  1  0.43410000  0.16698000  0.76351000  1.0
  O  O285  1  0.81180000  0.56924000  0.68570000  1.0
  O  O286  1  0.83340000  0.73844000  0.69105000  1.0
  O  O287  1  0.98240000  0.60685000  0.55113000  1.0
  O  O288  1  0.18820000  0.43076000  0.31430000  1.0
  O  O289  1  0.06590000  0.33302000  0.26351000  1.0
  O  O290  1  0.52680000  0.94313000  0.10297000  1.0
  O  O291  1  0.78670000  0.80968000  0.12041000  1.0
  O  O292  1  0.64600000  0.45488000  0.76877000  1.0
  O  O293  1  0.33340000  0.23844000  0.80895000  1.0
  O  O294  1  0.02290000  0.74584000  0.66143000  1.0
  O  O295  1  0.67760000  0.80918000  0.05853000  1.0
  O  O296  1  0.51760000  0.89315000  0.05113000  1.0
  O  O297  1  0.97320000  0.55687000  0.60297000  1.0
  O  O298  1  0.48240000  0.10685000  0.94887000  1.0
  O  O299  1  0.29250000  0.72237000  0.43122000  1.0
  O  O300  1  0.20610000  0.13203000  0.80786000  1.0
  O  O301  1  0.52320000  0.84909000  0.14337000  1.0
  O  O302  1  0.47320000  0.05687000  0.89703000  1.0
  O  O303  1  0.97680000  0.65091000  0.64337000  1.0
  O  O304  1  0.68820000  0.93076000  0.18570000  1.0
  O  O305  1  0.36120000  0.80753000  0.06228000  1.0
  O  O306  1  0.56590000  0.83302000  0.23649000  1.0
  O  O307  1  0.70610000  0.63203000  0.69214000  1.0
