# generated using pymatgen
data_ZnH12C18N2O3
_symmetry_space_group_name_H-M   'P 1'
_cell_length_a   26.77200000
_cell_length_b   26.77200000
_cell_length_c   5.06620000
_cell_angle_alpha   90.00000000
_cell_angle_beta   90.00000000
_cell_angle_gamma   90.00000000
_symmetry_Int_Tables_number   1
_chemical_formula_structural   ZnH12C18N2O3
_chemical_formula_sum   'Zn8 H96 C144 N16 O24'
_cell_volume   3631.14810694
_cell_formula_units_Z   8
loop_
 _symmetry_equiv_pos_site_id
 _symmetry_equiv_pos_as_xyz
  1  'x, y, z'
loop_
 _atom_site_type_symbol
 _atom_site_label
 _atom_site_symmetry_multiplicity
 _atom_site_fract_x
 _atom_site_fract_y
 _atom_site_fract_z
 _atom_site_occupancy
  Zn  Zn0  1  0.21308000  0.22922000  0.70829000  1.0
  Zn  Zn1  1  0.71308000  0.72922000  0.20829000  1.0
  Zn  Zn2  1  0.78692000  0.77078000  0.70829000  1.0
  Zn  Zn3  1  0.28692000  0.27078000  0.20829000  1.0
  Zn  Zn4  1  0.22922000  0.78692000  0.29171000  1.0
  Zn  Zn5  1  0.72922000  0.28692000  0.79171000  1.0
  Zn  Zn6  1  0.77078000  0.21308000  0.29171000  1.0
  Zn  Zn7  1  0.27078000  0.71308000  0.79171000  1.0
  H  H8  1  0.10660000  0.20770000  0.94190000  1.0
  H  H9  1  0.18010000  0.31260000  0.29050000  1.0
  H  H10  1  0.17240000  0.37820000  0.94370000  1.0
  H  H11  1  0.12420000  0.43590000  0.71220000  1.0
  H  H12  1  0.03930000  0.44740000  0.82430000  1.0
  H  H13  1  0.00240000  0.40040000  0.14750000  1.0
  H  H14  1  0.00670000  0.33120000  0.47910000  1.0
  H  H15  1  0.03770000  0.22250000  0.21420000  1.0
  H  H16  1  0.95950000  0.20090000  0.39430000  1.0
  H  H17  1  0.89240000  0.23750000  0.70760000  1.0
  H  H18  1  0.97040000  0.25670000  0.52380000  1.0
  H  H19  1  0.31850000  0.75667000  0.11390000  1.0
  H  H20  1  0.60660000  0.70770000  0.44190000  1.0
  H  H21  1  0.68010000  0.81260000  0.79050000  1.0
  H  H22  1  0.67240000  0.87820000  0.44370000  1.0
  H  H23  1  0.62420000  0.93590000  0.21220000  1.0
  H  H24  1  0.53930000  0.94740000  0.32430000  1.0
  H  H25  1  0.50240000  0.90040000  0.64750000  1.0
  H  H26  1  0.50670000  0.83120000  0.97910000  1.0
  H  H27  1  0.53770000  0.72250000  0.71420000  1.0
  H  H28  1  0.45950000  0.70090000  0.89430000  1.0
  H  H29  1  0.39240000  0.73750000  0.20760000  1.0
  H  H30  1  0.47040000  0.75670000  0.02380000  1.0
  H  H31  1  0.81850000  0.25667000  0.61390000  1.0
  H  H32  1  0.89340000  0.79230000  0.94190000  1.0
  H  H33  1  0.81990000  0.68740000  0.29050000  1.0
  H  H34  1  0.82760000  0.62180000  0.94370000  1.0
  H  H35  1  0.87580000  0.56410000  0.71220000  1.0
  H  H36  1  0.96070000  0.55260000  0.82430000  1.0
  H  H37  1  0.99760000  0.59960000  0.14750000  1.0
  H  H38  1  0.99330000  0.66880000  0.47910000  1.0
  H  H39  1  0.96230000  0.77750000  0.21420000  1.0
  H  H40  1  0.04050000  0.79910000  0.39430000  1.0
  H  H41  1  0.10760000  0.76250000  0.70760000  1.0
  H  H42  1  0.02960000  0.74330000  0.52380000  1.0
  H  H43  1  0.68150000  0.24333000  0.11390000  1.0
  H  H44  1  0.39340000  0.29230000  0.44190000  1.0
  H  H45  1  0.31990000  0.18740000  0.79050000  1.0
  H  H46  1  0.32760000  0.12180000  0.44370000  1.0
  H  H47  1  0.37580000  0.06410000  0.21220000  1.0
  H  H48  1  0.46070000  0.05260000  0.32430000  1.0
  H  H49  1  0.49760000  0.09960000  0.64750000  1.0
  H  H50  1  0.49330000  0.16880000  0.97910000  1.0
  H  H51  1  0.46230000  0.27750000  0.71420000  1.0
  H  H52  1  0.54050000  0.29910000  0.89430000  1.0
  H  H53  1  0.60760000  0.26250000  0.20760000  1.0
  H  H54  1  0.52960000  0.24330000  0.02380000  1.0
  H  H55  1  0.18150000  0.74333000  0.61390000  1.0
  H  H56  1  0.20770000  0.89340000  0.05810000  1.0
  H  H57  1  0.31260000  0.81990000  0.70950000  1.0
  H  H58  1  0.37820000  0.82760000  0.05630000  1.0
  H  H59  1  0.43590000  0.87580000  0.28780000  1.0
  H  H60  1  0.44740000  0.96070000  0.17570000  1.0
  H  H61  1  0.40040000  0.99760000  0.85250000  1.0
  H  H62  1  0.33120000  0.99330000  0.52090000  1.0
  H  H63  1  0.22250000  0.96230000  0.78580000  1.0
  H  H64  1  0.20090000  0.04050000  0.60570000  1.0
  H  H65  1  0.23750000  0.10760000  0.29240000  1.0
  H  H66  1  0.25670000  0.02960000  0.47620000  1.0
  H  H67  1  0.75667000  0.68150000  0.88610000  1.0
  H  H68  1  0.70770000  0.39340000  0.55810000  1.0
  H  H69  1  0.81260000  0.31990000  0.20950000  1.0
  H  H70  1  0.87820000  0.32760000  0.55630000  1.0
  H  H71  1  0.93590000  0.37580000  0.78780000  1.0
  H  H72  1  0.94740000  0.46070000  0.67570000  1.0
  H  H73  1  0.90040000  0.49760000  0.35250000  1.0
  H  H74  1  0.83120000  0.49330000  0.02090000  1.0
  H  H75  1  0.72250000  0.46230000  0.28580000  1.0
  H  H76  1  0.70090000  0.54050000  0.10570000  1.0
  H  H77  1  0.73750000  0.60760000  0.79240000  1.0
  H  H78  1  0.75670000  0.52960000  0.97620000  1.0
  H  H79  1  0.25667000  0.18150000  0.38610000  1.0
  H  H80  1  0.79230000  0.10660000  0.05810000  1.0
  H  H81  1  0.68740000  0.18010000  0.70950000  1.0
  H  H82  1  0.62180000  0.17240000  0.05630000  1.0
  H  H83  1  0.56410000  0.12420000  0.28780000  1.0
  H  H84  1  0.55260000  0.03930000  0.17570000  1.0
  H  H85  1  0.59960000  0.00240000  0.85250000  1.0
  H  H86  1  0.66880000  0.00670000  0.52090000  1.0
  H  H87  1  0.77750000  0.03770000  0.78580000  1.0
  H  H88  1  0.79910000  0.95950000  0.60570000  1.0
  H  H89  1  0.76250000  0.89240000  0.29240000  1.0
  H  H90  1  0.74330000  0.97040000  0.47620000  1.0
  H  H91  1  0.24333000  0.31850000  0.88610000  1.0
  H  H92  1  0.29230000  0.60660000  0.55810000  1.0
  H  H93  1  0.18740000  0.68010000  0.20950000  1.0
  H  H94  1  0.12180000  0.67240000  0.55630000  1.0
  H  H95  1  0.06410000  0.62420000  0.78780000  1.0
  H  H96  1  0.05260000  0.53930000  0.67570000  1.0
  H  H97  1  0.09960000  0.50240000  0.35250000  1.0
  H  H98  1  0.16880000  0.50670000  0.02090000  1.0
  H  H99  1  0.27750000  0.53770000  0.28580000  1.0
  H  H100  1  0.29910000  0.45950000  0.10570000  1.0
  H  H101  1  0.26250000  0.39240000  0.79240000  1.0
  H  H102  1  0.24330000  0.47040000  0.97620000  1.0
  H  H103  1  0.74333000  0.81850000  0.38610000  1.0
  C  C104  1  0.10368000  0.23377000  0.81570000  1.0
  C  C105  1  0.12192000  0.28824000  0.51460000  1.0
  C  C106  1  0.14553000  0.31670000  0.32620000  1.0
  C  C107  1  0.11667000  0.35218000  0.18760000  1.0
  C  C108  1  0.13800000  0.38204000  0.98590000  1.0
  C  C109  1  0.10957000  0.41664000  0.84940000  1.0
  C  C110  1  0.05856000  0.42310000  0.91560000  1.0
  C  C111  1  0.03663000  0.39527000  0.10700000  1.0
  C  C112  1  0.06437000  0.35820000  0.24870000  1.0
  C  C113  1  0.04126000  0.32786000  0.43940000  1.0
  C  C114  1  0.07051000  0.29310000  0.56640000  1.0
  C  C115  1  0.01195000  0.24239000  0.86060000  1.0
  C  C116  1  0.91952000  0.21381000  0.05060000  1.0
  C  C117  1  0.86981000  0.19891000  0.16440000  1.0
  C  C118  1  0.00850000  0.22530000  0.10930000  1.0
  C  C119  1  0.96220000  0.21150000  0.21590000  1.0
  C  C120  1  0.92200000  0.23280000  0.80770000  1.0
  C  C121  1  0.96810000  0.24570000  0.70170000  1.0
  C  C122  1  0.60368000  0.73377000  0.31570000  1.0
  C  C123  1  0.62192000  0.78824000  0.01460000  1.0
  C  C124  1  0.64553000  0.81670000  0.82620000  1.0
  C  C125  1  0.61667000  0.85218000  0.68760000  1.0
  C  C126  1  0.63800000  0.88204000  0.48590000  1.0
  C  C127  1  0.60957000  0.91664000  0.34940000  1.0
  C  C128  1  0.55856000  0.92310000  0.41560000  1.0
  C  C129  1  0.53663000  0.89527000  0.60700000  1.0
  C  C130  1  0.56437000  0.85820000  0.74870000  1.0
  C  C131  1  0.54126000  0.82786000  0.93940000  1.0
  C  C132  1  0.57051000  0.79310000  0.06640000  1.0
  C  C133  1  0.51195000  0.74239000  0.36060000  1.0
  C  C134  1  0.41952000  0.71381000  0.55060000  1.0
  C  C135  1  0.36981000  0.69891000  0.66440000  1.0
  C  C136  1  0.50850000  0.72530000  0.60930000  1.0
  C  C137  1  0.46220000  0.71150000  0.71590000  1.0
  C  C138  1  0.42200000  0.73280000  0.30770000  1.0
  C  C139  1  0.46810000  0.74570000  0.20170000  1.0
  C  C140  1  0.89632000  0.76623000  0.81570000  1.0
  C  C141  1  0.87808000  0.71176000  0.51460000  1.0
  C  C142  1  0.85447000  0.68330000  0.32620000  1.0
  C  C143  1  0.88333000  0.64782000  0.18760000  1.0
  C  C144  1  0.86200000  0.61796000  0.98590000  1.0
  C  C145  1  0.89043000  0.58336000  0.84940000  1.0
  C  C146  1  0.94144000  0.57690000  0.91560000  1.0
  C  C147  1  0.96337000  0.60473000  0.10700000  1.0
  C  C148  1  0.93563000  0.64180000  0.24870000  1.0
  C  C149  1  0.95874000  0.67214000  0.43940000  1.0
  C  C150  1  0.92949000  0.70690000  0.56640000  1.0
  C  C151  1  0.98805000  0.75761000  0.86060000  1.0
  C  C152  1  0.08048000  0.78619000  0.05060000  1.0
  C  C153  1  0.13019000  0.80109000  0.16440000  1.0
  C  C154  1  0.99150000  0.77470000  0.10930000  1.0
  C  C155  1  0.03780000  0.78850000  0.21590000  1.0
  C  C156  1  0.07800000  0.76720000  0.80770000  1.0
  C  C157  1  0.03190000  0.75430000  0.70170000  1.0
  C  C158  1  0.39632000  0.26623000  0.31570000  1.0
  C  C159  1  0.37808000  0.21176000  0.01460000  1.0
  C  C160  1  0.35447000  0.18330000  0.82620000  1.0
  C  C161  1  0.38333000  0.14782000  0.68760000  1.0
  C  C162  1  0.36200000  0.11796000  0.48590000  1.0
  C  C163  1  0.39043000  0.08336000  0.34940000  1.0
  C  C164  1  0.44144000  0.07690000  0.41560000  1.0
  C  C165  1  0.46337000  0.10473000  0.60700000  1.0
  C  C166  1  0.43563000  0.14180000  0.74870000  1.0
  C  C167  1  0.45874000  0.17214000  0.93940000  1.0
  C  C168  1  0.42949000  0.20690000  0.06640000  1.0
  C  C169  1  0.48805000  0.25761000  0.36060000  1.0
  C  C170  1  0.58048000  0.28619000  0.55060000  1.0
  C  C171  1  0.63019000  0.30109000  0.66440000  1.0
  C  C172  1  0.49150000  0.27470000  0.60930000  1.0
  C  C173  1  0.53780000  0.28850000  0.71590000  1.0
  C  C174  1  0.57800000  0.26720000  0.30770000  1.0
  C  C175  1  0.53190000  0.25430000  0.20170000  1.0
  C  C176  1  0.23377000  0.89632000  0.18430000  1.0
  C  C177  1  0.28824000  0.87808000  0.48540000  1.0
  C  C178  1  0.31670000  0.85447000  0.67380000  1.0
  C  C179  1  0.35218000  0.88333000  0.81240000  1.0
  C  C180  1  0.38204000  0.86200000  0.01410000  1.0
  C  C181  1  0.41664000  0.89043000  0.15060000  1.0
  C  C182  1  0.42310000  0.94144000  0.08440000  1.0
  C  C183  1  0.39527000  0.96337000  0.89300000  1.0
  C  C184  1  0.35820000  0.93563000  0.75130000  1.0
  C  C185  1  0.32786000  0.95874000  0.56060000  1.0
  C  C186  1  0.29310000  0.92949000  0.43360000  1.0
  C  C187  1  0.24239000  0.98805000  0.13940000  1.0
  C  C188  1  0.21381000  0.08048000  0.94940000  1.0
  C  C189  1  0.19891000  0.13019000  0.83560000  1.0
  C  C190  1  0.22530000  0.99150000  0.89070000  1.0
  C  C191  1  0.21150000  0.03780000  0.78410000  1.0
  C  C192  1  0.23280000  0.07800000  0.19230000  1.0
  C  C193  1  0.24570000  0.03190000  0.29830000  1.0
  C  C194  1  0.73377000  0.39632000  0.68430000  1.0
  C  C195  1  0.78824000  0.37808000  0.98540000  1.0
  C  C196  1  0.81670000  0.35447000  0.17380000  1.0
  C  C197  1  0.85218000  0.38333000  0.31240000  1.0
  C  C198  1  0.88204000  0.36200000  0.51410000  1.0
  C  C199  1  0.91664000  0.39043000  0.65060000  1.0
  C  C200  1  0.92310000  0.44144000  0.58440000  1.0
  C  C201  1  0.89527000  0.46337000  0.39300000  1.0
  C  C202  1  0.85820000  0.43563000  0.25130000  1.0
  C  C203  1  0.82786000  0.45874000  0.06060000  1.0
  C  C204  1  0.79310000  0.42949000  0.93360000  1.0
  C  C205  1  0.74239000  0.48805000  0.63940000  1.0
  C  C206  1  0.71381000  0.58048000  0.44940000  1.0
  C  C207  1  0.69891000  0.63019000  0.33560000  1.0
  C  C208  1  0.72530000  0.49150000  0.39070000  1.0
  C  C209  1  0.71150000  0.53780000  0.28410000  1.0
  C  C210  1  0.73280000  0.57800000  0.69230000  1.0
  C  C211  1  0.74570000  0.53190000  0.79830000  1.0
  C  C212  1  0.76623000  0.10368000  0.18430000  1.0
  C  C213  1  0.71176000  0.12192000  0.48540000  1.0
  C  C214  1  0.68330000  0.14553000  0.67380000  1.0
  C  C215  1  0.64782000  0.11667000  0.81240000  1.0
  C  C216  1  0.61796000  0.13800000  0.01410000  1.0
  C  C217  1  0.58336000  0.10957000  0.15060000  1.0
  C  C218  1  0.57690000  0.05856000  0.08440000  1.0
  C  C219  1  0.60473000  0.03663000  0.89300000  1.0
  C  C220  1  0.64180000  0.06437000  0.75130000  1.0
  C  C221  1  0.67214000  0.04126000  0.56060000  1.0
  C  C222  1  0.70690000  0.07051000  0.43360000  1.0
  C  C223  1  0.75761000  0.01195000  0.13940000  1.0
  C  C224  1  0.78619000  0.91952000  0.94940000  1.0
  C  C225  1  0.80109000  0.86981000  0.83560000  1.0
  C  C226  1  0.77470000  0.00850000  0.89070000  1.0
  C  C227  1  0.78850000  0.96220000  0.78410000  1.0
  C  C228  1  0.76720000  0.92200000  0.19230000  1.0
  C  C229  1  0.75430000  0.96810000  0.29830000  1.0
  C  C230  1  0.26623000  0.60368000  0.68430000  1.0
  C  C231  1  0.21176000  0.62192000  0.98540000  1.0
  C  C232  1  0.18330000  0.64553000  0.17380000  1.0
  C  C233  1  0.14782000  0.61667000  0.31240000  1.0
  C  C234  1  0.11796000  0.63800000  0.51410000  1.0
  C  C235  1  0.08336000  0.60957000  0.65060000  1.0
  C  C236  1  0.07690000  0.55856000  0.58440000  1.0
  C  C237  1  0.10473000  0.53663000  0.39300000  1.0
  C  C238  1  0.14180000  0.56437000  0.25130000  1.0
  C  C239  1  0.17214000  0.54126000  0.06060000  1.0
  C  C240  1  0.20690000  0.57051000  0.93360000  1.0
  C  C241  1  0.25761000  0.51195000  0.63940000  1.0
  C  C242  1  0.28619000  0.41952000  0.44940000  1.0
  C  C243  1  0.30109000  0.36981000  0.33560000  1.0
  C  C244  1  0.27470000  0.50850000  0.39070000  1.0
  C  C245  1  0.28850000  0.46220000  0.28410000  1.0
  C  C246  1  0.26720000  0.42200000  0.69230000  1.0
  C  C247  1  0.25430000  0.46810000  0.79830000  1.0
  N  N248  1  0.14148000  0.25085000  0.67860000  1.0
  N  N249  1  0.05991000  0.25707000  0.75920000  1.0
  N  N250  1  0.64148000  0.75085000  0.17860000  1.0
  N  N251  1  0.55991000  0.75707000  0.25920000  1.0
  N  N252  1  0.85852000  0.74915000  0.67860000  1.0
  N  N253  1  0.94009000  0.74293000  0.75920000  1.0
  N  N254  1  0.35852000  0.24915000  0.17860000  1.0
  N  N255  1  0.44009000  0.24293000  0.25920000  1.0
  N  N256  1  0.25085000  0.85852000  0.32140000  1.0
  N  N257  1  0.25707000  0.94009000  0.24080000  1.0
  N  N258  1  0.75085000  0.35852000  0.82140000  1.0
  N  N259  1  0.75707000  0.44009000  0.74080000  1.0
  N  N260  1  0.74915000  0.14148000  0.32140000  1.0
  N  N261  1  0.74293000  0.05991000  0.24080000  1.0
  N  N262  1  0.24915000  0.64148000  0.82140000  1.0
  N  N263  1  0.24293000  0.55991000  0.74080000  1.0
  O  O264  1  0.25080000  0.28115000  0.88610000  1.0
  O  O265  1  0.83166000  0.21955000  0.07390000  1.0
  O  O266  1  0.86850000  0.18330000  0.41060000  1.0
  O  O267  1  0.75080000  0.78115000  0.38610000  1.0
  O  O268  1  0.33166000  0.71955000  0.57390000  1.0
  O  O269  1  0.36850000  0.68330000  0.91060000  1.0
  O  O270  1  0.74920000  0.71885000  0.88610000  1.0
  O  O271  1  0.16834000  0.78045000  0.07390000  1.0
  O  O272  1  0.13150000  0.81670000  0.41060000  1.0
  O  O273  1  0.24920000  0.21885000  0.38610000  1.0
  O  O274  1  0.66834000  0.28045000  0.57390000  1.0
  O  O275  1  0.63150000  0.31670000  0.91060000  1.0
  O  O276  1  0.28115000  0.74920000  0.11390000  1.0
  O  O277  1  0.21955000  0.16834000  0.92610000  1.0
  O  O278  1  0.18330000  0.13150000  0.58940000  1.0
  O  O279  1  0.78115000  0.24920000  0.61390000  1.0
  O  O280  1  0.71955000  0.66834000  0.42610000  1.0
  O  O281  1  0.68330000  0.63150000  0.08940000  1.0
  O  O282  1  0.71885000  0.25080000  0.11390000  1.0
  O  O283  1  0.78045000  0.83166000  0.92610000  1.0
  O  O284  1  0.81670000  0.86850000  0.58940000  1.0
  O  O285  1  0.21885000  0.75080000  0.61390000  1.0
  O  O286  1  0.28045000  0.33166000  0.42610000  1.0
  O  O287  1  0.31670000  0.36850000  0.08940000  1.0
