# generated using pymatgen
data_Zr3H24(C8O3)4
_symmetry_space_group_name_H-M   'P 1'
_cell_length_a   35.12600000
_cell_length_b   35.12600000
_cell_length_c   11.23900000
_cell_angle_alpha   90.00000000
_cell_angle_beta   90.00000000
_cell_angle_gamma   90.00000000
_symmetry_Int_Tables_number   1
_chemical_formula_structural   Zr3H24(C8O3)4
_chemical_formula_sum   'Zr24 H192 C256 O96'
_cell_volume   13867.08141036
_cell_formula_units_Z   8
loop_
 _symmetry_equiv_pos_site_id
 _symmetry_equiv_pos_as_xyz
  1  'x, y, z'
loop_
 _atom_site_type_symbol
 _atom_site_label
 _atom_site_symmetry_multiplicity
 _atom_site_fract_x
 _atom_site_fract_y
 _atom_site_fract_z
 _atom_site_occupancy
  Zr  Zr0  1  0.45058000  0.54942000  0.50000000  1.0
  Zr  Zr1  1  0.04942000  0.95058000  0.50000000  1.0
  Zr  Zr2  1  0.95058000  0.45058000  0.00000000  1.0
  Zr  Zr3  1  0.54942000  0.04942000  0.00000000  1.0
  Zr  Zr4  1  0.54942000  0.45058000  0.50000000  1.0
  Zr  Zr5  1  0.95058000  0.04942000  0.50000000  1.0
  Zr  Zr6  1  0.04942000  0.54942000  0.00000000  1.0
  Zr  Zr7  1  0.45058000  0.95058000  0.00000000  1.0
  Zr  Zr8  1  0.54369000  0.54369000  0.61240000  1.0
  Zr  Zr9  1  0.52536000  0.52536000  0.30905000  1.0
  Zr  Zr10  1  0.95631000  0.95631000  0.61240000  1.0
  Zr  Zr11  1  0.97464000  0.97464000  0.30905000  1.0
  Zr  Zr12  1  0.95631000  0.54369000  0.11240000  1.0
  Zr  Zr13  1  0.97464000  0.52536000  0.80905000  1.0
  Zr  Zr14  1  0.54369000  0.95631000  0.11240000  1.0
  Zr  Zr15  1  0.52536000  0.97464000  0.80905000  1.0
  Zr  Zr16  1  0.45631000  0.04369000  0.88760000  1.0
  Zr  Zr17  1  0.47464000  0.02536000  0.19095000  1.0
  Zr  Zr18  1  0.04369000  0.45631000  0.88760000  1.0
  Zr  Zr19  1  0.02536000  0.47464000  0.19095000  1.0
  Zr  Zr20  1  0.04369000  0.04369000  0.38760000  1.0
  Zr  Zr21  1  0.02536000  0.02536000  0.69095000  1.0
  Zr  Zr22  1  0.45631000  0.45631000  0.38760000  1.0
  Zr  Zr23  1  0.47464000  0.47464000  0.69095000  1.0
  H  H24  1  0.77680000  0.45080000  0.86050000  1.0
  H  H25  1  0.84220000  0.44370000  0.89320000  1.0
  H  H26  1  0.73220000  0.42770000  0.64890000  1.0
  H  H27  1  0.66666667  0.43080000  0.61500000  1.0
  H  H28  1  0.66880000  0.54440000  0.67710000  1.0
  H  H29  1  0.78380000  0.53600000  0.51140000  1.0
  H  H30  1  0.78240000  0.49450000  0.45280000  1.0
  H  H31  1  0.82160000  0.51770000  0.45630000  1.0
  H  H32  1  0.86410000  0.49990000  0.58580000  1.0
  H  H33  1  0.72340000  0.57750000  0.73350000  1.0
  H  H34  1  0.75960000  0.56360000  0.65900000  1.0
  H  H35  1  0.75630000  0.55350000  0.79750000  1.0
  H  H36  1  0.72320000  0.04920000  0.86050000  1.0
  H  H37  1  0.65780000  0.05630000  0.89320000  1.0
  H  H38  1  0.76780000  0.07230000  0.64890000  1.0
  H  H39  1  0.83340000  0.06920000  0.61500000  1.0
  H  H40  1  0.83120000  0.95560000  0.67710000  1.0
  H  H41  1  0.71620000  0.96400000  0.51140000  1.0
  H  H42  1  0.71760000  0.00550000  0.45280000  1.0
  H  H43  1  0.67840000  0.98230000  0.45630000  1.0
  H  H44  1  0.63590000  0.00010000  0.58580000  1.0
  H  H45  1  0.77660000  0.92250000  0.73350000  1.0
  H  H46  1  0.74040000  0.93640000  0.65900000  1.0
  H  H47  1  0.74370000  0.94650000  0.79750000  1.0
  H  H48  1  0.04920000  0.77680000  0.36050000  1.0
  H  H49  1  0.05630000  0.84220000  0.39320000  1.0
  H  H50  1  0.07230000  0.73220000  0.14890000  1.0
  H  H51  1  0.06920000  0.66666667  0.11500000  1.0
  H  H52  1  0.95560000  0.66880000  0.17710000  1.0
  H  H53  1  0.96400000  0.78380000  0.01140000  1.0
  H  H54  1  0.00550000  0.78240000  0.95280000  1.0
  H  H55  1  0.98230000  0.82160000  0.95630000  1.0
  H  H56  1  0.00010000  0.86410000  0.08580000  1.0
  H  H57  1  0.92250000  0.72340000  0.23350000  1.0
  H  H58  1  0.93640000  0.75960000  0.15900000  1.0
  H  H59  1  0.94650000  0.75630000  0.29750000  1.0
  H  H60  1  0.45080000  0.72320000  0.36050000  1.0
  H  H61  1  0.44370000  0.65780000  0.39320000  1.0
  H  H62  1  0.42770000  0.76780000  0.14890000  1.0
  H  H63  1  0.43080000  0.83340000  0.11500000  1.0
  H  H64  1  0.54440000  0.83120000  0.17710000  1.0
  H  H65  1  0.53600000  0.71620000  0.01140000  1.0
  H  H66  1  0.49450000  0.71760000  0.95280000  1.0
  H  H67  1  0.51770000  0.67840000  0.95630000  1.0
  H  H68  1  0.49990000  0.63590000  0.08580000  1.0
  H  H69  1  0.57750000  0.77660000  0.23350000  1.0
  H  H70  1  0.56360000  0.74040000  0.15900000  1.0
  H  H71  1  0.55350000  0.74370000  0.29750000  1.0
  H  H72  1  0.22320000  0.95080000  0.63950000  1.0
  H  H73  1  0.15780000  0.94370000  0.60680000  1.0
  H  H74  1  0.26780000  0.92770000  0.85110000  1.0
  H  H75  1  0.33340000  0.93080000  0.88500000  1.0
  H  H76  1  0.33120000  0.04440000  0.82290000  1.0
  H  H77  1  0.21620000  0.03600000  0.98860000  1.0
  H  H78  1  0.21760000  0.99450000  0.04720000  1.0
  H  H79  1  0.17840000  0.01770000  0.04370000  1.0
  H  H80  1  0.13590000  0.99990000  0.91420000  1.0
  H  H81  1  0.27660000  0.07750000  0.76650000  1.0
  H  H82  1  0.24040000  0.06360000  0.84100000  1.0
  H  H83  1  0.24370000  0.05350000  0.70250000  1.0
  H  H84  1  0.27680000  0.54920000  0.63950000  1.0
  H  H85  1  0.34220000  0.55630000  0.60680000  1.0
  H  H86  1  0.23220000  0.57230000  0.85110000  1.0
  H  H87  1  0.16660000  0.56920000  0.88500000  1.0
  H  H88  1  0.16880000  0.45560000  0.82290000  1.0
  H  H89  1  0.28380000  0.46400000  0.98860000  1.0
  H  H90  1  0.28240000  0.50550000  0.04720000  1.0
  H  H91  1  0.32160000  0.48230000  0.04370000  1.0
  H  H92  1  0.36410000  0.50010000  0.91420000  1.0
  H  H93  1  0.22340000  0.42250000  0.76650000  1.0
  H  H94  1  0.25960000  0.43640000  0.84100000  1.0
  H  H95  1  0.25630000  0.44650000  0.70250000  1.0
  H  H96  1  0.95080000  0.27680000  0.13950000  1.0
  H  H97  1  0.94370000  0.34220000  0.10680000  1.0
  H  H98  1  0.92770000  0.23220000  0.35110000  1.0
  H  H99  1  0.93080000  0.16660000  0.38500000  1.0
  H  H100  1  0.04440000  0.16880000  0.32290000  1.0
  H  H101  1  0.03600000  0.28380000  0.48860000  1.0
  H  H102  1  0.99450000  0.28240000  0.54720000  1.0
  H  H103  1  0.01770000  0.32160000  0.54370000  1.0
  H  H104  1  0.99990000  0.36410000  0.41420000  1.0
  H  H105  1  0.07750000  0.22340000  0.26650000  1.0
  H  H106  1  0.06360000  0.25960000  0.34100000  1.0
  H  H107  1  0.05350000  0.25630000  0.20250000  1.0
  H  H108  1  0.54920000  0.22320000  0.13950000  1.0
  H  H109  1  0.55630000  0.15780000  0.10680000  1.0
  H  H110  1  0.57230000  0.26780000  0.35110000  1.0
  H  H111  1  0.56920000  0.33340000  0.38500000  1.0
  H  H112  1  0.45560000  0.33120000  0.32290000  1.0
  H  H113  1  0.46400000  0.21620000  0.48860000  1.0
  H  H114  1  0.50550000  0.21760000  0.54720000  1.0
  H  H115  1  0.48230000  0.17840000  0.54370000  1.0
  H  H116  1  0.50010000  0.13590000  0.41420000  1.0
  H  H117  1  0.42250000  0.27660000  0.26650000  1.0
  H  H118  1  0.43640000  0.24040000  0.34100000  1.0
  H  H119  1  0.44650000  0.24370000  0.20250000  1.0
  H  H120  1  0.22320000  0.54920000  0.13950000  1.0
  H  H121  1  0.15780000  0.55630000  0.10680000  1.0
  H  H122  1  0.26780000  0.57230000  0.35110000  1.0
  H  H123  1  0.33340000  0.56920000  0.38500000  1.0
  H  H124  1  0.33120000  0.45560000  0.32290000  1.0
  H  H125  1  0.21620000  0.46400000  0.48860000  1.0
  H  H126  1  0.21760000  0.50550000  0.54720000  1.0
  H  H127  1  0.17840000  0.48230000  0.54370000  1.0
  H  H128  1  0.13590000  0.50010000  0.41420000  1.0
  H  H129  1  0.27660000  0.42250000  0.26650000  1.0
  H  H130  1  0.24040000  0.43640000  0.34100000  1.0
  H  H131  1  0.24370000  0.44650000  0.20250000  1.0
  H  H132  1  0.27680000  0.95080000  0.13950000  1.0
  H  H133  1  0.34220000  0.94370000  0.10680000  1.0
  H  H134  1  0.23220000  0.92770000  0.35110000  1.0
  H  H135  1  0.16660000  0.93080000  0.38500000  1.0
  H  H136  1  0.16880000  0.04440000  0.32290000  1.0
  H  H137  1  0.28380000  0.03600000  0.48860000  1.0
  H  H138  1  0.28240000  0.99450000  0.54720000  1.0
  H  H139  1  0.32160000  0.01770000  0.54370000  1.0
  H  H140  1  0.36410000  0.99990000  0.41420000  1.0
  H  H141  1  0.22340000  0.07750000  0.26650000  1.0
  H  H142  1  0.25960000  0.06360000  0.34100000  1.0
  H  H143  1  0.25630000  0.05350000  0.20250000  1.0
  H  H144  1  0.95080000  0.22320000  0.63950000  1.0
  H  H145  1  0.94370000  0.15780000  0.60680000  1.0
  H  H146  1  0.92770000  0.26780000  0.85110000  1.0
  H  H147  1  0.93080000  0.33340000  0.88500000  1.0
  H  H148  1  0.04440000  0.33120000  0.82290000  1.0
  H  H149  1  0.03600000  0.21620000  0.98860000  1.0
  H  H150  1  0.99450000  0.21760000  0.04720000  1.0
  H  H151  1  0.01770000  0.17840000  0.04370000  1.0
  H  H152  1  0.99990000  0.13590000  0.91420000  1.0
  H  H153  1  0.07750000  0.27660000  0.76650000  1.0
  H  H154  1  0.06360000  0.24040000  0.84100000  1.0
  H  H155  1  0.05350000  0.24370000  0.70250000  1.0
  H  H156  1  0.54920000  0.27680000  0.63950000  1.0
  H  H157  1  0.55630000  0.34220000  0.60680000  1.0
  H  H158  1  0.57230000  0.23220000  0.85110000  1.0
  H  H159  1  0.56920000  0.16660000  0.88500000  1.0
  H  H160  1  0.45560000  0.16880000  0.82290000  1.0
  H  H161  1  0.46400000  0.28380000  0.98860000  1.0
  H  H162  1  0.50550000  0.28240000  0.04720000  1.0
  H  H163  1  0.48230000  0.32160000  0.04370000  1.0
  H  H164  1  0.50010000  0.36410000  0.91420000  1.0
  H  H165  1  0.42250000  0.22340000  0.76650000  1.0
  H  H166  1  0.43640000  0.25960000  0.84100000  1.0
  H  H167  1  0.44650000  0.25630000  0.70250000  1.0
  H  H168  1  0.77680000  0.04920000  0.36050000  1.0
  H  H169  1  0.84220000  0.05630000  0.39320000  1.0
  H  H170  1  0.73220000  0.07230000  0.14890000  1.0
  H  H171  1  0.66666667  0.06920000  0.11500000  1.0
  H  H172  1  0.66880000  0.95560000  0.17710000  1.0
  H  H173  1  0.78380000  0.96400000  0.01140000  1.0
  H  H174  1  0.78240000  0.00550000  0.95280000  1.0
  H  H175  1  0.82160000  0.98230000  0.95630000  1.0
  H  H176  1  0.86410000  0.00010000  0.08580000  1.0
  H  H177  1  0.72340000  0.92250000  0.23350000  1.0
  H  H178  1  0.75960000  0.93640000  0.15900000  1.0
  H  H179  1  0.75630000  0.94650000  0.29750000  1.0
  H  H180  1  0.72320000  0.45080000  0.36050000  1.0
  H  H181  1  0.65780000  0.44370000  0.39320000  1.0
  H  H182  1  0.76780000  0.42770000  0.14890000  1.0
  H  H183  1  0.83340000  0.43080000  0.11500000  1.0
  H  H184  1  0.83120000  0.54440000  0.17710000  1.0
  H  H185  1  0.71620000  0.53600000  0.01140000  1.0
  H  H186  1  0.71760000  0.49450000  0.95280000  1.0
  H  H187  1  0.67840000  0.51770000  0.95630000  1.0
  H  H188  1  0.63590000  0.49990000  0.08580000  1.0
  H  H189  1  0.77660000  0.57750000  0.23350000  1.0
  H  H190  1  0.74040000  0.56360000  0.15900000  1.0
  H  H191  1  0.74370000  0.55350000  0.29750000  1.0
  H  H192  1  0.04920000  0.72320000  0.86050000  1.0
  H  H193  1  0.05630000  0.65780000  0.89320000  1.0
  H  H194  1  0.07230000  0.76780000  0.64890000  1.0
  H  H195  1  0.06920000  0.83340000  0.61500000  1.0
  H  H196  1  0.95560000  0.83120000  0.67710000  1.0
  H  H197  1  0.96400000  0.71620000  0.51140000  1.0
  H  H198  1  0.00550000  0.71760000  0.45280000  1.0
  H  H199  1  0.98230000  0.67840000  0.45630000  1.0
  H  H200  1  0.00010000  0.63590000  0.58580000  1.0
  H  H201  1  0.92250000  0.77660000  0.73350000  1.0
  H  H202  1  0.93640000  0.74040000  0.65900000  1.0
  H  H203  1  0.94650000  0.74370000  0.79750000  1.0
  H  H204  1  0.45080000  0.77680000  0.86050000  1.0
  H  H205  1  0.44370000  0.84220000  0.89320000  1.0
  H  H206  1  0.42770000  0.73220000  0.64890000  1.0
  H  H207  1  0.43080000  0.66666667  0.61500000  1.0
  H  H208  1  0.54440000  0.66880000  0.67710000  1.0
  H  H209  1  0.53600000  0.78380000  0.51140000  1.0
  H  H210  1  0.49450000  0.78240000  0.45280000  1.0
  H  H211  1  0.51770000  0.82160000  0.45630000  1.0
  H  H212  1  0.49990000  0.86410000  0.58580000  1.0
  H  H213  1  0.57750000  0.72340000  0.73350000  1.0
  H  H214  1  0.56360000  0.75960000  0.65900000  1.0
  H  H215  1  0.55350000  0.75630000  0.79750000  1.0
  C  C216  1  0.79456000  0.46079000  0.80480000  1.0
  C  C217  1  0.80752000  0.49421000  0.62210000  1.0
  C  C218  1  0.83338000  0.45653000  0.82420000  1.0
  C  C219  1  0.85932000  0.47112000  0.74250000  1.0
  C  C220  1  0.71932000  0.45138000  0.65460000  1.0
  C  C221  1  0.68032000  0.45324000  0.63450000  1.0
  C  C222  1  0.66149000  0.48793000  0.64290000  1.0
  C  C223  1  0.72065000  0.51888000  0.69150000  1.0
  C  C224  1  0.68164000  0.52074000  0.67140000  1.0
  C  C225  1  0.79790000  0.51230000  0.49930000  1.0
  C  C226  1  0.84641000  0.48994000  0.64160000  1.0
  C  C227  1  0.78166000  0.47965000  0.70360000  1.0
  C  C228  1  0.90060000  0.47090000  0.77110000  1.0
  C  C229  1  0.73950000  0.48419000  0.68300000  1.0
  C  C230  1  0.62010000  0.48993000  0.62150000  1.0
  C  C231  1  0.74200000  0.55700000  0.72340000  1.0
  C  C232  1  0.70544000  0.03921000  0.80480000  1.0
  C  C233  1  0.69248000  0.00579000  0.62210000  1.0
  C  C234  1  0.66666667  0.04347000  0.82420000  1.0
  C  C235  1  0.64068000  0.02888000  0.74250000  1.0
  C  C236  1  0.78068000  0.04862000  0.65460000  1.0
  C  C237  1  0.81968000  0.04676000  0.63450000  1.0
  C  C238  1  0.83851000  0.01207000  0.64290000  1.0
  C  C239  1  0.77935000  0.98112000  0.69150000  1.0
  C  C240  1  0.81836000  0.97926000  0.67140000  1.0
  C  C241  1  0.70210000  0.98770000  0.49930000  1.0
  C  C242  1  0.65359000  0.01006000  0.64160000  1.0
  C  C243  1  0.71834000  0.02035000  0.70360000  1.0
  C  C244  1  0.59940000  0.02910000  0.77110000  1.0
  C  C245  1  0.76050000  0.01581000  0.68300000  1.0
  C  C246  1  0.87990000  0.01007000  0.62150000  1.0
  C  C247  1  0.75800000  0.94300000  0.72340000  1.0
  C  C248  1  0.03921000  0.79456000  0.30480000  1.0
  C  C249  1  0.00579000  0.80752000  0.12210000  1.0
  C  C250  1  0.04347000  0.83338000  0.32420000  1.0
  C  C251  1  0.02888000  0.85932000  0.24250000  1.0
  C  C252  1  0.04862000  0.71932000  0.15460000  1.0
  C  C253  1  0.04676000  0.68032000  0.13450000  1.0
  C  C254  1  0.01207000  0.66149000  0.14290000  1.0
  C  C255  1  0.98112000  0.72065000  0.19150000  1.0
  C  C256  1  0.97926000  0.68164000  0.17140000  1.0
  C  C257  1  0.98770000  0.79790000  0.99930000  1.0
  C  C258  1  0.01006000  0.84641000  0.14160000  1.0
  C  C259  1  0.02035000  0.78166000  0.20360000  1.0
  C  C260  1  0.02910000  0.90060000  0.27110000  1.0
  C  C261  1  0.01581000  0.73950000  0.18300000  1.0
  C  C262  1  0.01007000  0.62010000  0.12150000  1.0
  C  C263  1  0.94300000  0.74200000  0.22340000  1.0
  C  C264  1  0.46079000  0.70544000  0.30480000  1.0
  C  C265  1  0.49421000  0.69248000  0.12210000  1.0
  C  C266  1  0.45653000  0.66666667  0.32420000  1.0
  C  C267  1  0.47112000  0.64068000  0.24250000  1.0
  C  C268  1  0.45138000  0.78068000  0.15460000  1.0
  C  C269  1  0.45324000  0.81968000  0.13450000  1.0
  C  C270  1  0.48793000  0.83851000  0.14290000  1.0
  C  C271  1  0.51888000  0.77935000  0.19150000  1.0
  C  C272  1  0.52074000  0.81836000  0.17140000  1.0
  C  C273  1  0.51230000  0.70210000  0.99930000  1.0
  C  C274  1  0.48994000  0.65359000  0.14160000  1.0
  C  C275  1  0.47965000  0.71834000  0.20360000  1.0
  C  C276  1  0.47090000  0.59940000  0.27110000  1.0
  C  C277  1  0.48419000  0.76050000  0.18300000  1.0
  C  C278  1  0.48993000  0.87990000  0.12150000  1.0
  C  C279  1  0.55700000  0.75800000  0.22340000  1.0
  C  C280  1  0.20544000  0.96079000  0.69520000  1.0
  C  C281  1  0.19248000  0.99421000  0.87790000  1.0
  C  C282  1  0.16662000  0.95653000  0.67580000  1.0
  C  C283  1  0.14068000  0.97112000  0.75750000  1.0
  C  C284  1  0.28068000  0.95138000  0.84540000  1.0
  C  C285  1  0.31968000  0.95324000  0.86550000  1.0
  C  C286  1  0.33851000  0.98793000  0.85710000  1.0
  C  C287  1  0.27935000  0.01888000  0.80850000  1.0
  C  C288  1  0.31836000  0.02074000  0.82860000  1.0
  C  C289  1  0.20210000  0.01230000  0.00070000  1.0
  C  C290  1  0.15359000  0.98994000  0.85840000  1.0
  C  C291  1  0.21834000  0.97965000  0.79640000  1.0
  C  C292  1  0.09940000  0.97090000  0.72890000  1.0
  C  C293  1  0.26050000  0.98419000  0.81700000  1.0
  C  C294  1  0.37990000  0.98993000  0.87850000  1.0
  C  C295  1  0.25800000  0.05700000  0.77660000  1.0
  C  C296  1  0.29456000  0.53921000  0.69520000  1.0
  C  C297  1  0.30752000  0.50579000  0.87790000  1.0
  C  C298  1  0.33338000  0.54347000  0.67580000  1.0
  C  C299  1  0.35932000  0.52888000  0.75750000  1.0
  C  C300  1  0.21932000  0.54862000  0.84540000  1.0
  C  C301  1  0.18032000  0.54676000  0.86550000  1.0
  C  C302  1  0.16149000  0.51207000  0.85710000  1.0
  C  C303  1  0.22065000  0.48112000  0.80850000  1.0
  C  C304  1  0.18164000  0.47926000  0.82860000  1.0
  C  C305  1  0.29790000  0.48770000  0.00070000  1.0
  C  C306  1  0.34641000  0.51006000  0.85840000  1.0
  C  C307  1  0.28166000  0.52035000  0.79640000  1.0
  C  C308  1  0.40060000  0.52910000  0.72890000  1.0
  C  C309  1  0.23950000  0.51581000  0.81700000  1.0
  C  C310  1  0.12010000  0.51007000  0.87850000  1.0
  C  C311  1  0.24200000  0.44300000  0.77660000  1.0
  C  C312  1  0.96079000  0.29456000  0.19520000  1.0
  C  C313  1  0.99421000  0.30752000  0.37790000  1.0
  C  C314  1  0.95653000  0.33338000  0.17580000  1.0
  C  C315  1  0.97112000  0.35932000  0.25750000  1.0
  C  C316  1  0.95138000  0.21932000  0.34540000  1.0
  C  C317  1  0.95324000  0.18032000  0.36550000  1.0
  C  C318  1  0.98793000  0.16149000  0.35710000  1.0
  C  C319  1  0.01888000  0.22065000  0.30850000  1.0
  C  C320  1  0.02074000  0.18164000  0.32860000  1.0
  C  C321  1  0.01230000  0.29790000  0.50070000  1.0
  C  C322  1  0.98994000  0.34641000  0.35840000  1.0
  C  C323  1  0.97965000  0.28166000  0.29640000  1.0
  C  C324  1  0.97090000  0.40060000  0.22890000  1.0
  C  C325  1  0.98419000  0.23950000  0.31700000  1.0
  C  C326  1  0.98993000  0.12010000  0.37850000  1.0
  C  C327  1  0.05700000  0.24200000  0.27660000  1.0
  C  C328  1  0.53921000  0.20544000  0.19520000  1.0
  C  C329  1  0.50579000  0.19248000  0.37790000  1.0
  C  C330  1  0.54347000  0.16662000  0.17580000  1.0
  C  C331  1  0.52888000  0.14068000  0.25750000  1.0
  C  C332  1  0.54862000  0.28068000  0.34540000  1.0
  C  C333  1  0.54676000  0.31968000  0.36550000  1.0
  C  C334  1  0.51207000  0.33851000  0.35710000  1.0
  C  C335  1  0.48112000  0.27935000  0.30850000  1.0
  C  C336  1  0.47926000  0.31836000  0.32860000  1.0
  C  C337  1  0.48770000  0.20210000  0.50070000  1.0
  C  C338  1  0.51006000  0.15359000  0.35840000  1.0
  C  C339  1  0.52035000  0.21834000  0.29640000  1.0
  C  C340  1  0.52910000  0.09940000  0.22890000  1.0
  C  C341  1  0.51581000  0.26050000  0.31700000  1.0
  C  C342  1  0.51007000  0.37990000  0.37850000  1.0
  C  C343  1  0.44300000  0.25800000  0.27660000  1.0
  C  C344  1  0.20544000  0.53921000  0.19520000  1.0
  C  C345  1  0.19248000  0.50579000  0.37790000  1.0
  C  C346  1  0.16662000  0.54347000  0.17580000  1.0
  C  C347  1  0.14068000  0.52888000  0.25750000  1.0
  C  C348  1  0.28068000  0.54862000  0.34540000  1.0
  C  C349  1  0.31968000  0.54676000  0.36550000  1.0
  C  C350  1  0.33851000  0.51207000  0.35710000  1.0
  C  C351  1  0.27935000  0.48112000  0.30850000  1.0
  C  C352  1  0.31836000  0.47926000  0.32860000  1.0
  C  C353  1  0.20210000  0.48770000  0.50070000  1.0
  C  C354  1  0.15359000  0.51006000  0.35840000  1.0
  C  C355  1  0.21834000  0.52035000  0.29640000  1.0
  C  C356  1  0.09940000  0.52910000  0.22890000  1.0
  C  C357  1  0.26050000  0.51581000  0.31700000  1.0
  C  C358  1  0.37990000  0.51007000  0.37850000  1.0
  C  C359  1  0.25800000  0.44300000  0.27660000  1.0
  C  C360  1  0.29456000  0.96079000  0.19520000  1.0
  C  C361  1  0.30752000  0.99421000  0.37790000  1.0
  C  C362  1  0.33338000  0.95653000  0.17580000  1.0
  C  C363  1  0.35932000  0.97112000  0.25750000  1.0
  C  C364  1  0.21932000  0.95138000  0.34540000  1.0
  C  C365  1  0.18032000  0.95324000  0.36550000  1.0
  C  C366  1  0.16149000  0.98793000  0.35710000  1.0
  C  C367  1  0.22065000  0.01888000  0.30850000  1.0
  C  C368  1  0.18164000  0.02074000  0.32860000  1.0
  C  C369  1  0.29790000  0.01230000  0.50070000  1.0
  C  C370  1  0.34641000  0.98994000  0.35840000  1.0
  C  C371  1  0.28166000  0.97965000  0.29640000  1.0
  C  C372  1  0.40060000  0.97090000  0.22890000  1.0
  C  C373  1  0.23950000  0.98419000  0.31700000  1.0
  C  C374  1  0.12010000  0.98993000  0.37850000  1.0
  C  C375  1  0.24200000  0.05700000  0.27660000  1.0
  C  C376  1  0.96079000  0.20544000  0.69520000  1.0
  C  C377  1  0.99421000  0.19248000  0.87790000  1.0
  C  C378  1  0.95653000  0.16662000  0.67580000  1.0
  C  C379  1  0.97112000  0.14068000  0.75750000  1.0
  C  C380  1  0.95138000  0.28068000  0.84540000  1.0
  C  C381  1  0.95324000  0.31968000  0.86550000  1.0
  C  C382  1  0.98793000  0.33851000  0.85710000  1.0
  C  C383  1  0.01888000  0.27935000  0.80850000  1.0
  C  C384  1  0.02074000  0.31836000  0.82860000  1.0
  C  C385  1  0.01230000  0.20210000  0.00070000  1.0
  C  C386  1  0.98994000  0.15359000  0.85840000  1.0
  C  C387  1  0.97965000  0.21834000  0.79640000  1.0
  C  C388  1  0.97090000  0.09940000  0.72890000  1.0
  C  C389  1  0.98419000  0.26050000  0.81700000  1.0
  C  C390  1  0.98993000  0.37990000  0.87850000  1.0
  C  C391  1  0.05700000  0.25800000  0.77660000  1.0
  C  C392  1  0.53921000  0.29456000  0.69520000  1.0
  C  C393  1  0.50579000  0.30752000  0.87790000  1.0
  C  C394  1  0.54347000  0.33338000  0.67580000  1.0
  C  C395  1  0.52888000  0.35932000  0.75750000  1.0
  C  C396  1  0.54862000  0.21932000  0.84540000  1.0
  C  C397  1  0.54676000  0.18032000  0.86550000  1.0
  C  C398  1  0.51207000  0.16149000  0.85710000  1.0
  C  C399  1  0.48112000  0.22065000  0.80850000  1.0
  C  C400  1  0.47926000  0.18164000  0.82860000  1.0
  C  C401  1  0.48770000  0.29790000  0.00070000  1.0
  C  C402  1  0.51006000  0.34641000  0.85840000  1.0
  C  C403  1  0.52035000  0.28166000  0.79640000  1.0
  C  C404  1  0.52910000  0.40060000  0.72890000  1.0
  C  C405  1  0.51581000  0.23950000  0.81700000  1.0
  C  C406  1  0.51007000  0.12010000  0.87850000  1.0
  C  C407  1  0.44300000  0.24200000  0.77660000  1.0
  C  C408  1  0.79456000  0.03921000  0.30480000  1.0
  C  C409  1  0.80752000  0.00579000  0.12210000  1.0
  C  C410  1  0.83338000  0.04347000  0.32420000  1.0
  C  C411  1  0.85932000  0.02888000  0.24250000  1.0
  C  C412  1  0.71932000  0.04862000  0.15460000  1.0
  C  C413  1  0.68032000  0.04676000  0.13450000  1.0
  C  C414  1  0.66149000  0.01207000  0.14290000  1.0
  C  C415  1  0.72065000  0.98112000  0.19150000  1.0
  C  C416  1  0.68164000  0.97926000  0.17140000  1.0
  C  C417  1  0.79790000  0.98770000  0.99930000  1.0
  C  C418  1  0.84641000  0.01006000  0.14160000  1.0
  C  C419  1  0.78166000  0.02035000  0.20360000  1.0
  C  C420  1  0.90060000  0.02910000  0.27110000  1.0
  C  C421  1  0.73950000  0.01581000  0.18300000  1.0
  C  C422  1  0.62010000  0.01007000  0.12150000  1.0
  C  C423  1  0.74200000  0.94300000  0.22340000  1.0
  C  C424  1  0.70544000  0.46079000  0.30480000  1.0
  C  C425  1  0.69248000  0.49421000  0.12210000  1.0
  C  C426  1  0.66666667  0.45653000  0.32420000  1.0
  C  C427  1  0.64068000  0.47112000  0.24250000  1.0
  C  C428  1  0.78068000  0.45138000  0.15460000  1.0
  C  C429  1  0.81968000  0.45324000  0.13450000  1.0
  C  C430  1  0.83851000  0.48793000  0.14290000  1.0
  C  C431  1  0.77935000  0.51888000  0.19150000  1.0
  C  C432  1  0.81836000  0.52074000  0.17140000  1.0
  C  C433  1  0.70210000  0.51230000  0.99930000  1.0
  C  C434  1  0.65359000  0.48994000  0.14160000  1.0
  C  C435  1  0.71834000  0.47965000  0.20360000  1.0
  C  C436  1  0.59940000  0.47090000  0.27110000  1.0
  C  C437  1  0.76050000  0.48419000  0.18300000  1.0
  C  C438  1  0.87990000  0.48993000  0.12150000  1.0
  C  C439  1  0.75800000  0.55700000  0.22340000  1.0
  C  C440  1  0.03921000  0.70544000  0.80480000  1.0
  C  C441  1  0.00579000  0.69248000  0.62210000  1.0
  C  C442  1  0.04347000  0.66666667  0.82420000  1.0
  C  C443  1  0.02888000  0.64068000  0.74250000  1.0
  C  C444  1  0.04862000  0.78068000  0.65460000  1.0
  C  C445  1  0.04676000  0.81968000  0.63450000  1.0
  C  C446  1  0.01207000  0.83851000  0.64290000  1.0
  C  C447  1  0.98112000  0.77935000  0.69150000  1.0
  C  C448  1  0.97926000  0.81836000  0.67140000  1.0
  C  C449  1  0.98770000  0.70210000  0.49930000  1.0
  C  C450  1  0.01006000  0.65359000  0.64160000  1.0
  C  C451  1  0.02035000  0.71834000  0.70360000  1.0
  C  C452  1  0.02910000  0.59940000  0.77110000  1.0
  C  C453  1  0.01581000  0.76050000  0.68300000  1.0
  C  C454  1  0.01007000  0.87990000  0.62150000  1.0
  C  C455  1  0.94300000  0.75800000  0.72340000  1.0
  C  C456  1  0.46079000  0.79456000  0.80480000  1.0
  C  C457  1  0.49421000  0.80752000  0.62210000  1.0
  C  C458  1  0.45653000  0.83338000  0.82420000  1.0
  C  C459  1  0.47112000  0.85932000  0.74250000  1.0
  C  C460  1  0.45138000  0.71932000  0.65460000  1.0
  C  C461  1  0.45324000  0.68032000  0.63450000  1.0
  C  C462  1  0.48793000  0.66149000  0.64290000  1.0
  C  C463  1  0.51888000  0.72065000  0.69150000  1.0
  C  C464  1  0.52074000  0.68164000  0.67140000  1.0
  C  C465  1  0.51230000  0.79790000  0.49930000  1.0
  C  C466  1  0.48994000  0.84641000  0.64160000  1.0
  C  C467  1  0.47965000  0.78166000  0.70360000  1.0
  C  C468  1  0.47090000  0.90060000  0.77110000  1.0
  C  C469  1  0.48419000  0.73950000  0.68300000  1.0
  C  C470  1  0.48993000  0.62010000  0.62150000  1.0
  C  C471  1  0.55700000  0.74200000  0.72340000  1.0
  O  O472  1  0.60433000  0.45993000  0.58440000  1.0
  O  O473  1  0.46695000  0.51497000  0.34750000  1.0
  O  O474  1  0.60216000  0.51960000  0.65530000  1.0
  O  O475  1  0.90931000  0.44784000  0.85350000  1.0
  O  O476  1  0.51103000  0.55780000  0.46180000  1.0
  O  O477  1  0.92279000  0.49622000  0.73080000  1.0
  O  O478  1  0.89567000  0.04007000  0.58440000  1.0
  O  O479  1  0.03305000  0.98503000  0.34750000  1.0
  O  O480  1  0.89784000  0.98040000  0.65530000  1.0
  O  O481  1  0.59069000  0.05216000  0.85350000  1.0
  O  O482  1  0.98897000  0.94220000  0.46180000  1.0
  O  O483  1  0.57721000  0.00378000  0.73080000  1.0
  O  O484  1  0.04007000  0.60433000  0.08440000  1.0
  O  O485  1  0.98503000  0.46695000  0.84750000  1.0
  O  O486  1  0.98040000  0.60216000  0.15530000  1.0
  O  O487  1  0.05216000  0.90931000  0.35350000  1.0
  O  O488  1  0.94220000  0.51103000  0.96180000  1.0
  O  O489  1  0.00378000  0.92279000  0.23080000  1.0
  O  O490  1  0.45993000  0.89567000  0.08440000  1.0
  O  O491  1  0.51497000  0.03305000  0.84750000  1.0
  O  O492  1  0.51960000  0.89784000  0.15530000  1.0
  O  O493  1  0.44784000  0.59069000  0.35350000  1.0
  O  O494  1  0.55780000  0.98897000  0.96180000  1.0
  O  O495  1  0.49622000  0.57721000  0.23080000  1.0
  O  O496  1  0.39567000  0.95993000  0.91560000  1.0
  O  O497  1  0.53305000  0.01497000  0.15250000  1.0
  O  O498  1  0.39784000  0.01960000  0.84470000  1.0
  O  O499  1  0.09069000  0.94784000  0.64650000  1.0
  O  O500  1  0.48897000  0.05780000  0.03820000  1.0
  O  O501  1  0.07721000  0.99622000  0.76920000  1.0
  O  O502  1  0.10433000  0.54007000  0.91560000  1.0
  O  O503  1  0.96695000  0.48503000  0.15250000  1.0
  O  O504  1  0.10216000  0.48040000  0.84470000  1.0
  O  O505  1  0.40931000  0.55216000  0.64650000  1.0
  O  O506  1  0.01103000  0.44220000  0.03820000  1.0
  O  O507  1  0.42279000  0.50378000  0.76920000  1.0
  O  O508  1  0.95993000  0.10433000  0.41560000  1.0
  O  O509  1  0.01497000  0.96695000  0.65250000  1.0
  O  O510  1  0.01960000  0.10216000  0.34470000  1.0
  O  O511  1  0.94784000  0.40931000  0.14650000  1.0
  O  O512  1  0.05780000  0.01103000  0.53820000  1.0
  O  O513  1  0.99622000  0.42279000  0.26920000  1.0
  O  O514  1  0.54007000  0.39567000  0.41560000  1.0
  O  O515  1  0.48503000  0.53305000  0.65250000  1.0
  O  O516  1  0.48040000  0.39784000  0.34470000  1.0
  O  O517  1  0.55216000  0.09069000  0.14650000  1.0
  O  O518  1  0.44220000  0.48897000  0.53820000  1.0
  O  O519  1  0.50378000  0.07721000  0.26920000  1.0
  O  O520  1  0.39567000  0.54007000  0.41560000  1.0
  O  O521  1  0.53305000  0.48503000  0.65250000  1.0
  O  O522  1  0.39784000  0.48040000  0.34470000  1.0
  O  O523  1  0.09069000  0.55216000  0.14650000  1.0
  O  O524  1  0.48897000  0.44220000  0.53820000  1.0
  O  O525  1  0.07721000  0.50378000  0.26920000  1.0
  O  O526  1  0.10433000  0.95993000  0.41560000  1.0
  O  O527  1  0.96695000  0.01497000  0.65250000  1.0
  O  O528  1  0.10216000  0.01960000  0.34470000  1.0
  O  O529  1  0.40931000  0.94784000  0.14650000  1.0
  O  O530  1  0.01103000  0.05780000  0.53820000  1.0
  O  O531  1  0.42279000  0.99622000  0.26920000  1.0
  O  O532  1  0.95993000  0.39567000  0.91560000  1.0
  O  O533  1  0.01497000  0.53305000  0.15250000  1.0
  O  O534  1  0.01960000  0.39784000  0.84470000  1.0
  O  O535  1  0.94784000  0.09069000  0.64650000  1.0
  O  O536  1  0.05780000  0.48897000  0.03820000  1.0
  O  O537  1  0.99622000  0.07721000  0.76920000  1.0
  O  O538  1  0.54007000  0.10433000  0.91560000  1.0
  O  O539  1  0.48503000  0.96695000  0.15250000  1.0
  O  O540  1  0.48040000  0.10216000  0.84470000  1.0
  O  O541  1  0.55216000  0.40931000  0.64650000  1.0
  O  O542  1  0.44220000  0.01103000  0.03820000  1.0
  O  O543  1  0.50378000  0.42279000  0.76920000  1.0
  O  O544  1  0.60433000  0.04007000  0.08440000  1.0
  O  O545  1  0.46695000  0.98503000  0.84750000  1.0
  O  O546  1  0.60216000  0.98040000  0.15530000  1.0
  O  O547  1  0.90931000  0.05216000  0.35350000  1.0
  O  O548  1  0.51103000  0.94220000  0.96180000  1.0
  O  O549  1  0.92279000  0.00378000  0.23080000  1.0
  O  O550  1  0.89567000  0.45993000  0.08440000  1.0
  O  O551  1  0.03305000  0.51497000  0.84750000  1.0
  O  O552  1  0.89784000  0.51960000  0.15530000  1.0
  O  O553  1  0.59069000  0.44784000  0.35350000  1.0
  O  O554  1  0.98897000  0.55780000  0.96180000  1.0
  O  O555  1  0.57721000  0.49622000  0.23080000  1.0
  O  O556  1  0.04007000  0.89567000  0.58440000  1.0
  O  O557  1  0.98503000  0.03305000  0.34750000  1.0
  O  O558  1  0.98040000  0.89784000  0.65530000  1.0
  O  O559  1  0.05216000  0.59069000  0.85350000  1.0
  O  O560  1  0.94220000  0.98897000  0.46180000  1.0
  O  O561  1  0.00378000  0.57721000  0.73080000  1.0
  O  O562  1  0.45993000  0.60433000  0.58440000  1.0
  O  O563  1  0.51497000  0.46695000  0.34750000  1.0
  O  O564  1  0.51960000  0.60216000  0.65530000  1.0
  O  O565  1  0.44784000  0.90931000  0.85350000  1.0
  O  O566  1  0.55780000  0.51103000  0.46180000  1.0
  O  O567  1  0.49622000  0.92279000  0.73080000  1.0
