# generated using pymatgen
data_EuH7(C5O2)3
_symmetry_space_group_name_H-M   'P 1'
_cell_length_a   14.21180000
_cell_length_b   14.21180000
_cell_length_c   63.50100000
_cell_angle_alpha   90.00000000
_cell_angle_beta   90.00000000
_cell_angle_gamma   90.00000000
_symmetry_Int_Tables_number   1
_chemical_formula_structural   EuH7(C5O2)3
_chemical_formula_sum   'Eu24 H168 C360 O144'
_cell_volume   12825.63093700
_cell_formula_units_Z   24
loop_
 _symmetry_equiv_pos_site_id
 _symmetry_equiv_pos_as_xyz
  1  'x, y, z'
loop_
 _atom_site_type_symbol
 _atom_site_label
 _atom_site_symmetry_multiplicity
 _atom_site_fract_x
 _atom_site_fract_y
 _atom_site_fract_z
 _atom_site_occupancy
  Eu  Eu0  1  0.22204000  0.98080000  0.43826000  1.0
  Eu  Eu1  1  0.72204000  0.48080000  0.93826000  1.0
  Eu  Eu2  1  0.77796000  0.01920000  0.43826000  1.0
  Eu  Eu3  1  0.27796000  0.51920000  0.93826000  1.0
  Eu  Eu4  1  0.98080000  0.77796000  0.56174000  1.0
  Eu  Eu5  1  0.48080000  0.27796000  0.06174000  1.0
  Eu  Eu6  1  0.01920000  0.22204000  0.56174000  1.0
  Eu  Eu7  1  0.51920000  0.72204000  0.06174000  1.0
  Eu  Eu8  1  0.27796000  0.98080000  0.31174000  1.0
  Eu  Eu9  1  0.77796000  0.48080000  0.81174000  1.0
  Eu  Eu10  1  0.72204000  0.01920000  0.31174000  1.0
  Eu  Eu11  1  0.22204000  0.51920000  0.81174000  1.0
  Eu  Eu12  1  0.51920000  0.77796000  0.18826000  1.0
  Eu  Eu13  1  0.01920000  0.27796000  0.68826000  1.0
  Eu  Eu14  1  0.48080000  0.22204000  0.18826000  1.0
  Eu  Eu15  1  0.98080000  0.72204000  0.68826000  1.0
  Eu  Eu16  1  0.50000000  0.00000000  0.45980000  1.0
  Eu  Eu17  1  0.00000000  0.50000000  0.95980000  1.0
  Eu  Eu18  1  0.00000000  0.50000000  0.54020000  1.0
  Eu  Eu19  1  0.50000000  0.00000000  0.04020000  1.0
  Eu  Eu20  1  0.00000000  0.00000000  0.29020000  1.0
  Eu  Eu21  1  0.50000000  0.50000000  0.79020000  1.0
  Eu  Eu22  1  0.50000000  0.50000000  0.20980000  1.0
  Eu  Eu23  1  0.00000000  0.00000000  0.70980000  1.0
  H  H24  1  0.44950000  0.78480000  0.49000000  1.0
  H  H25  1  0.46390000  0.67100000  0.51660000  1.0
  H  H26  1  0.17700000  0.80380000  0.50070000  1.0
  H  H27  1  0.40080000  0.50150000  0.52780000  1.0
  H  H28  1  0.42530000  0.40680000  0.55650000  1.0
  H  H29  1  0.35810000  0.44140000  0.58760000  1.0
  H  H30  1  0.25360000  0.67080000  0.56360000  1.0
  H  H31  1  0.35870000  0.59360000  0.62040000  1.0
  H  H32  1  0.26900000  0.63050000  0.64810000  1.0
  H  H33  1  0.03470000  0.63220000  0.61500000  1.0
  H  H34  1  0.94950000  0.28480000  0.99000000  1.0
  H  H35  1  0.96390000  0.17100000  0.01660000  1.0
  H  H36  1  0.67700000  0.30380000  0.00070000  1.0
  H  H37  1  0.90080000  0.00150000  0.02780000  1.0
  H  H38  1  0.92530000  0.90680000  0.05650000  1.0
  H  H39  1  0.85810000  0.94140000  0.08760000  1.0
  H  H40  1  0.75360000  0.17080000  0.06360000  1.0
  H  H41  1  0.85870000  0.09360000  0.12040000  1.0
  H  H42  1  0.76900000  0.13050000  0.14810000  1.0
  H  H43  1  0.53470000  0.13220000  0.11500000  1.0
  H  H44  1  0.55050000  0.21520000  0.49000000  1.0
  H  H45  1  0.53610000  0.32900000  0.51660000  1.0
  H  H46  1  0.82300000  0.19620000  0.50070000  1.0
  H  H47  1  0.59920000  0.49850000  0.52780000  1.0
  H  H48  1  0.57470000  0.59320000  0.55650000  1.0
  H  H49  1  0.64190000  0.55860000  0.58760000  1.0
  H  H50  1  0.74640000  0.32920000  0.56360000  1.0
  H  H51  1  0.64130000  0.40640000  0.62040000  1.0
  H  H52  1  0.73100000  0.36950000  0.64810000  1.0
  H  H53  1  0.96530000  0.36780000  0.61500000  1.0
  H  H54  1  0.05050000  0.71520000  0.99000000  1.0
  H  H55  1  0.03610000  0.82900000  0.01660000  1.0
  H  H56  1  0.32300000  0.69620000  0.00070000  1.0
  H  H57  1  0.09920000  0.99850000  0.02780000  1.0
  H  H58  1  0.07470000  0.09320000  0.05650000  1.0
  H  H59  1  0.14190000  0.05860000  0.08760000  1.0
  H  H60  1  0.24640000  0.82920000  0.06360000  1.0
  H  H61  1  0.14130000  0.90640000  0.12040000  1.0
  H  H62  1  0.23100000  0.86950000  0.14810000  1.0
  H  H63  1  0.46530000  0.86780000  0.11500000  1.0
  H  H64  1  0.78480000  0.55050000  0.51000000  1.0
  H  H65  1  0.67100000  0.53610000  0.48340000  1.0
  H  H66  1  0.80380000  0.82300000  0.49930000  1.0
  H  H67  1  0.50150000  0.59920000  0.47220000  1.0
  H  H68  1  0.40680000  0.57470000  0.44350000  1.0
  H  H69  1  0.44140000  0.64190000  0.41240000  1.0
  H  H70  1  0.67080000  0.74640000  0.43640000  1.0
  H  H71  1  0.59360000  0.64130000  0.37960000  1.0
  H  H72  1  0.63050000  0.73100000  0.35190000  1.0
  H  H73  1  0.63220000  0.96530000  0.38500000  1.0
  H  H74  1  0.28480000  0.05050000  0.01000000  1.0
  H  H75  1  0.17100000  0.03610000  0.98340000  1.0
  H  H76  1  0.30380000  0.32300000  0.99930000  1.0
  H  H77  1  0.00150000  0.09920000  0.97220000  1.0
  H  H78  1  0.90680000  0.07470000  0.94350000  1.0
  H  H79  1  0.94140000  0.14190000  0.91240000  1.0
  H  H80  1  0.17080000  0.24640000  0.93640000  1.0
  H  H81  1  0.09360000  0.14130000  0.87960000  1.0
  H  H82  1  0.13050000  0.23100000  0.85190000  1.0
  H  H83  1  0.13220000  0.46530000  0.88500000  1.0
  H  H84  1  0.21520000  0.44950000  0.51000000  1.0
  H  H85  1  0.32900000  0.46390000  0.48340000  1.0
  H  H86  1  0.19620000  0.17700000  0.49930000  1.0
  H  H87  1  0.49850000  0.40080000  0.47220000  1.0
  H  H88  1  0.59320000  0.42530000  0.44350000  1.0
  H  H89  1  0.55860000  0.35810000  0.41240000  1.0
  H  H90  1  0.32920000  0.25360000  0.43640000  1.0
  H  H91  1  0.40640000  0.35870000  0.37960000  1.0
  H  H92  1  0.36950000  0.26900000  0.35190000  1.0
  H  H93  1  0.36780000  0.03470000  0.38500000  1.0
  H  H94  1  0.71520000  0.94950000  0.01000000  1.0
  H  H95  1  0.82900000  0.96390000  0.98340000  1.0
  H  H96  1  0.69620000  0.67700000  0.99930000  1.0
  H  H97  1  0.99850000  0.90080000  0.97220000  1.0
  H  H98  1  0.09320000  0.92530000  0.94350000  1.0
  H  H99  1  0.05860000  0.85810000  0.91240000  1.0
  H  H100  1  0.82920000  0.75360000  0.93640000  1.0
  H  H101  1  0.90640000  0.85870000  0.87960000  1.0
  H  H102  1  0.86950000  0.76900000  0.85190000  1.0
  H  H103  1  0.86780000  0.53470000  0.88500000  1.0
  H  H104  1  0.05050000  0.78480000  0.26000000  1.0
  H  H105  1  0.03610000  0.67100000  0.23340000  1.0
  H  H106  1  0.32300000  0.80380000  0.24930000  1.0
  H  H107  1  0.09920000  0.50150000  0.22220000  1.0
  H  H108  1  0.07470000  0.40680000  0.19350000  1.0
  H  H109  1  0.14190000  0.44140000  0.16240000  1.0
  H  H110  1  0.24640000  0.67080000  0.18640000  1.0
  H  H111  1  0.14130000  0.59360000  0.12960000  1.0
  H  H112  1  0.23100000  0.63050000  0.10190000  1.0
  H  H113  1  0.46530000  0.63220000  0.13500000  1.0
  H  H114  1  0.55050000  0.28480000  0.76000000  1.0
  H  H115  1  0.53610000  0.17100000  0.73340000  1.0
  H  H116  1  0.82300000  0.30380000  0.74930000  1.0
  H  H117  1  0.59920000  0.00150000  0.72220000  1.0
  H  H118  1  0.57470000  0.90680000  0.69350000  1.0
  H  H119  1  0.64190000  0.94140000  0.66240000  1.0
  H  H120  1  0.74640000  0.17080000  0.68640000  1.0
  H  H121  1  0.64130000  0.09360000  0.62960000  1.0
  H  H122  1  0.73100000  0.13050000  0.60190000  1.0
  H  H123  1  0.96530000  0.13220000  0.63500000  1.0
  H  H124  1  0.94950000  0.21520000  0.26000000  1.0
  H  H125  1  0.96390000  0.32900000  0.23340000  1.0
  H  H126  1  0.67700000  0.19620000  0.24930000  1.0
  H  H127  1  0.90080000  0.49850000  0.22220000  1.0
  H  H128  1  0.92530000  0.59320000  0.19350000  1.0
  H  H129  1  0.85810000  0.55860000  0.16240000  1.0
  H  H130  1  0.75360000  0.32920000  0.18640000  1.0
  H  H131  1  0.85870000  0.40640000  0.12960000  1.0
  H  H132  1  0.76900000  0.36950000  0.10190000  1.0
  H  H133  1  0.53470000  0.36780000  0.13500000  1.0
  H  H134  1  0.44950000  0.71520000  0.76000000  1.0
  H  H135  1  0.46390000  0.82900000  0.73340000  1.0
  H  H136  1  0.17700000  0.69620000  0.74930000  1.0
  H  H137  1  0.40080000  0.99850000  0.72220000  1.0
  H  H138  1  0.42530000  0.09320000  0.69350000  1.0
  H  H139  1  0.35810000  0.05860000  0.66240000  1.0
  H  H140  1  0.25360000  0.82920000  0.68640000  1.0
  H  H141  1  0.35870000  0.90640000  0.62960000  1.0
  H  H142  1  0.26900000  0.86950000  0.60190000  1.0
  H  H143  1  0.03470000  0.86780000  0.63500000  1.0
  H  H144  1  0.71520000  0.55050000  0.24000000  1.0
  H  H145  1  0.82900000  0.53610000  0.26660000  1.0
  H  H146  1  0.69620000  0.82300000  0.25070000  1.0
  H  H147  1  0.99850000  0.59920000  0.27780000  1.0
  H  H148  1  0.09320000  0.57470000  0.30650000  1.0
  H  H149  1  0.05860000  0.64190000  0.33760000  1.0
  H  H150  1  0.82920000  0.74640000  0.31360000  1.0
  H  H151  1  0.90640000  0.64130000  0.37040000  1.0
  H  H152  1  0.86950000  0.73100000  0.39810000  1.0
  H  H153  1  0.86780000  0.96530000  0.36500000  1.0
  H  H154  1  0.21520000  0.05050000  0.74000000  1.0
  H  H155  1  0.32900000  0.03610000  0.76660000  1.0
  H  H156  1  0.19620000  0.32300000  0.75070000  1.0
  H  H157  1  0.49850000  0.09920000  0.77780000  1.0
  H  H158  1  0.59320000  0.07470000  0.80650000  1.0
  H  H159  1  0.55860000  0.14190000  0.83760000  1.0
  H  H160  1  0.32920000  0.24640000  0.81360000  1.0
  H  H161  1  0.40640000  0.14130000  0.87040000  1.0
  H  H162  1  0.36950000  0.23100000  0.89810000  1.0
  H  H163  1  0.36780000  0.46530000  0.86500000  1.0
  H  H164  1  0.28480000  0.44950000  0.24000000  1.0
  H  H165  1  0.17100000  0.46390000  0.26660000  1.0
  H  H166  1  0.30380000  0.17700000  0.25070000  1.0
  H  H167  1  0.00150000  0.40080000  0.27780000  1.0
  H  H168  1  0.90680000  0.42530000  0.30650000  1.0
  H  H169  1  0.94140000  0.35810000  0.33760000  1.0
  H  H170  1  0.17080000  0.25360000  0.31360000  1.0
  H  H171  1  0.09360000  0.35870000  0.37040000  1.0
  H  H172  1  0.13050000  0.26900000  0.39810000  1.0
  H  H173  1  0.13220000  0.03470000  0.36500000  1.0
  H  H174  1  0.78480000  0.94950000  0.74000000  1.0
  H  H175  1  0.67100000  0.96390000  0.76660000  1.0
  H  H176  1  0.80380000  0.67700000  0.75070000  1.0
  H  H177  1  0.50150000  0.90080000  0.77780000  1.0
  H  H178  1  0.40680000  0.92530000  0.80650000  1.0
  H  H179  1  0.44140000  0.85810000  0.83760000  1.0
  H  H180  1  0.67080000  0.75360000  0.81360000  1.0
  H  H181  1  0.59360000  0.85870000  0.87040000  1.0
  H  H182  1  0.63050000  0.76900000  0.89810000  1.0
  H  H183  1  0.63220000  0.53470000  0.86500000  1.0
  H  H184  1  0.00000000  0.00000000  0.42830000  1.0
  H  H185  1  0.50000000  0.50000000  0.92830000  1.0
  H  H186  1  0.00000000  0.00000000  0.57170000  1.0
  H  H187  1  0.50000000  0.50000000  0.07170000  1.0
  H  H188  1  0.50000000  0.00000000  0.32170000  1.0
  H  H189  1  0.00000000  0.50000000  0.82170000  1.0
  H  H190  1  0.50000000  0.00000000  0.17830000  1.0
  H  H191  1  0.00000000  0.50000000  0.67830000  1.0
  C  C192  1  0.31630000  0.79220000  0.49160000  1.0
  C  C193  1  0.39620000  0.76270000  0.49690000  1.0
  C  C194  1  0.40540000  0.69640000  0.51330000  1.0
  C  C195  1  0.32100000  0.66790000  0.52500000  1.0
  C  C196  1  0.23630000  0.70750000  0.51880000  1.0
  C  C197  1  0.23280000  0.77210000  0.50360000  1.0
  C  C198  1  0.33570000  0.60360000  0.54290000  1.0
  C  C199  1  0.37840000  0.52010000  0.54100000  1.0
  C  C200  1  0.39000000  0.46150000  0.55790000  1.0
  C  C201  1  0.35050000  0.48300000  0.57640000  1.0
  C  C202  1  0.29840000  0.56420000  0.57950000  1.0
  C  C203  1  0.29170000  0.61780000  0.56250000  1.0
  C  C204  1  0.24760000  0.58450000  0.59840000  1.0
  C  C205  1  0.29390000  0.59970000  0.61890000  1.0
  C  C206  1  0.23900000  0.62270000  0.63520000  1.0
  C  C207  1  0.14570000  0.63570000  0.63500000  1.0
  C  C208  1  0.09920000  0.62220000  0.61610000  1.0
  C  C209  1  0.15270000  0.59280000  0.59850000  1.0
  C  C210  1  0.30260000  0.86830000  0.47460000  1.0
  C  C211  1  0.14200000  0.68130000  0.52900000  1.0
  C  C212  1  0.09900000  0.57190000  0.57770000  1.0
  C  C213  1  0.09400000  0.65910000  0.65400000  1.0
  C  C214  1  0.81630000  0.29220000  0.99160000  1.0
  C  C215  1  0.89620000  0.26270000  0.99690000  1.0
  C  C216  1  0.90540000  0.19640000  0.01330000  1.0
  C  C217  1  0.82100000  0.16790000  0.02500000  1.0
  C  C218  1  0.73630000  0.20750000  0.01880000  1.0
  C  C219  1  0.73280000  0.27210000  0.00360000  1.0
  C  C220  1  0.83570000  0.10360000  0.04290000  1.0
  C  C221  1  0.87840000  0.02010000  0.04100000  1.0
  C  C222  1  0.89000000  0.96150000  0.05790000  1.0
  C  C223  1  0.85050000  0.98300000  0.07640000  1.0
  C  C224  1  0.79840000  0.06420000  0.07950000  1.0
  C  C225  1  0.79170000  0.11780000  0.06250000  1.0
  C  C226  1  0.74760000  0.08450000  0.09840000  1.0
  C  C227  1  0.79390000  0.09970000  0.11890000  1.0
  C  C228  1  0.73900000  0.12270000  0.13520000  1.0
  C  C229  1  0.64570000  0.13570000  0.13500000  1.0
  C  C230  1  0.59920000  0.12220000  0.11610000  1.0
  C  C231  1  0.65270000  0.09280000  0.09850000  1.0
  C  C232  1  0.80260000  0.36830000  0.97460000  1.0
  C  C233  1  0.64200000  0.18130000  0.02900000  1.0
  C  C234  1  0.59900000  0.07190000  0.07770000  1.0
  C  C235  1  0.59400000  0.15910000  0.15400000  1.0
  C  C236  1  0.68370000  0.20780000  0.49160000  1.0
  C  C237  1  0.60380000  0.23730000  0.49690000  1.0
  C  C238  1  0.59460000  0.30360000  0.51330000  1.0
  C  C239  1  0.67900000  0.33210000  0.52500000  1.0
  C  C240  1  0.76370000  0.29250000  0.51880000  1.0
  C  C241  1  0.76720000  0.22790000  0.50360000  1.0
  C  C242  1  0.66430000  0.39640000  0.54290000  1.0
  C  C243  1  0.62160000  0.47990000  0.54100000  1.0
  C  C244  1  0.61000000  0.53850000  0.55790000  1.0
  C  C245  1  0.64950000  0.51700000  0.57640000  1.0
  C  C246  1  0.70160000  0.43580000  0.57950000  1.0
  C  C247  1  0.70830000  0.38220000  0.56250000  1.0
  C  C248  1  0.75240000  0.41550000  0.59840000  1.0
  C  C249  1  0.70610000  0.40030000  0.61890000  1.0
  C  C250  1  0.76100000  0.37730000  0.63520000  1.0
  C  C251  1  0.85430000  0.36430000  0.63500000  1.0
  C  C252  1  0.90080000  0.37780000  0.61610000  1.0
  C  C253  1  0.84730000  0.40720000  0.59850000  1.0
  C  C254  1  0.69740000  0.13170000  0.47460000  1.0
  C  C255  1  0.85800000  0.31870000  0.52900000  1.0
  C  C256  1  0.90100000  0.42810000  0.57770000  1.0
  C  C257  1  0.90600000  0.34090000  0.65400000  1.0
  C  C258  1  0.18370000  0.70780000  0.99160000  1.0
  C  C259  1  0.10380000  0.73730000  0.99690000  1.0
  C  C260  1  0.09460000  0.80360000  0.01330000  1.0
  C  C261  1  0.17900000  0.83210000  0.02500000  1.0
  C  C262  1  0.26370000  0.79250000  0.01880000  1.0
  C  C263  1  0.26720000  0.72790000  0.00360000  1.0
  C  C264  1  0.16430000  0.89640000  0.04290000  1.0
  C  C265  1  0.12160000  0.97990000  0.04100000  1.0
  C  C266  1  0.11000000  0.03850000  0.05790000  1.0
  C  C267  1  0.14950000  0.01700000  0.07640000  1.0
  C  C268  1  0.20160000  0.93580000  0.07950000  1.0
  C  C269  1  0.20830000  0.88220000  0.06250000  1.0
  C  C270  1  0.25240000  0.91550000  0.09840000  1.0
  C  C271  1  0.20610000  0.90030000  0.11890000  1.0
  C  C272  1  0.26100000  0.87730000  0.13520000  1.0
  C  C273  1  0.35430000  0.86430000  0.13500000  1.0
  C  C274  1  0.40080000  0.87780000  0.11610000  1.0
  C  C275  1  0.34730000  0.90720000  0.09850000  1.0
  C  C276  1  0.19740000  0.63170000  0.97460000  1.0
  C  C277  1  0.35800000  0.81870000  0.02900000  1.0
  C  C278  1  0.40100000  0.92810000  0.07770000  1.0
  C  C279  1  0.40600000  0.84090000  0.15400000  1.0
  C  C280  1  0.79220000  0.68370000  0.50840000  1.0
  C  C281  1  0.76270000  0.60380000  0.50310000  1.0
  C  C282  1  0.69640000  0.59460000  0.48670000  1.0
  C  C283  1  0.66790000  0.67900000  0.47500000  1.0
  C  C284  1  0.70750000  0.76370000  0.48120000  1.0
  C  C285  1  0.77210000  0.76720000  0.49640000  1.0
  C  C286  1  0.60360000  0.66430000  0.45710000  1.0
  C  C287  1  0.52010000  0.62160000  0.45900000  1.0
  C  C288  1  0.46150000  0.61000000  0.44210000  1.0
  C  C289  1  0.48300000  0.64950000  0.42360000  1.0
  C  C290  1  0.56420000  0.70160000  0.42050000  1.0
  C  C291  1  0.61780000  0.70830000  0.43750000  1.0
  C  C292  1  0.58450000  0.75240000  0.40160000  1.0
  C  C293  1  0.59970000  0.70610000  0.38110000  1.0
  C  C294  1  0.62270000  0.76100000  0.36480000  1.0
  C  C295  1  0.63570000  0.85430000  0.36500000  1.0
  C  C296  1  0.62220000  0.90080000  0.38390000  1.0
  C  C297  1  0.59280000  0.84730000  0.40150000  1.0
  C  C298  1  0.86830000  0.69740000  0.52540000  1.0
  C  C299  1  0.68130000  0.85800000  0.47100000  1.0
  C  C300  1  0.57190000  0.90100000  0.42230000  1.0
  C  C301  1  0.65910000  0.90600000  0.34600000  1.0
  C  C302  1  0.29220000  0.18370000  0.00840000  1.0
  C  C303  1  0.26270000  0.10380000  0.00310000  1.0
  C  C304  1  0.19640000  0.09460000  0.98670000  1.0
  C  C305  1  0.16790000  0.17900000  0.97500000  1.0
  C  C306  1  0.20750000  0.26370000  0.98120000  1.0
  C  C307  1  0.27210000  0.26720000  0.99640000  1.0
  C  C308  1  0.10360000  0.16430000  0.95710000  1.0
  C  C309  1  0.02010000  0.12160000  0.95900000  1.0
  C  C310  1  0.96150000  0.11000000  0.94210000  1.0
  C  C311  1  0.98300000  0.14950000  0.92360000  1.0
  C  C312  1  0.06420000  0.20160000  0.92050000  1.0
  C  C313  1  0.11780000  0.20830000  0.93750000  1.0
  C  C314  1  0.08450000  0.25240000  0.90160000  1.0
  C  C315  1  0.09970000  0.20610000  0.88110000  1.0
  C  C316  1  0.12270000  0.26100000  0.86480000  1.0
  C  C317  1  0.13570000  0.35430000  0.86500000  1.0
  C  C318  1  0.12220000  0.40080000  0.88390000  1.0
  C  C319  1  0.09280000  0.34730000  0.90150000  1.0
  C  C320  1  0.36830000  0.19740000  0.02540000  1.0
  C  C321  1  0.18130000  0.35800000  0.97100000  1.0
  C  C322  1  0.07190000  0.40100000  0.92230000  1.0
  C  C323  1  0.15910000  0.40600000  0.84600000  1.0
  C  C324  1  0.20780000  0.31630000  0.50840000  1.0
  C  C325  1  0.23730000  0.39620000  0.50310000  1.0
  C  C326  1  0.30360000  0.40540000  0.48670000  1.0
  C  C327  1  0.33210000  0.32100000  0.47500000  1.0
  C  C328  1  0.29250000  0.23630000  0.48120000  1.0
  C  C329  1  0.22790000  0.23280000  0.49640000  1.0
  C  C330  1  0.39640000  0.33570000  0.45710000  1.0
  C  C331  1  0.47990000  0.37840000  0.45900000  1.0
  C  C332  1  0.53850000  0.39000000  0.44210000  1.0
  C  C333  1  0.51700000  0.35050000  0.42360000  1.0
  C  C334  1  0.43580000  0.29840000  0.42050000  1.0
  C  C335  1  0.38220000  0.29170000  0.43750000  1.0
  C  C336  1  0.41550000  0.24760000  0.40160000  1.0
  C  C337  1  0.40030000  0.29390000  0.38110000  1.0
  C  C338  1  0.37730000  0.23900000  0.36480000  1.0
  C  C339  1  0.36430000  0.14570000  0.36500000  1.0
  C  C340  1  0.37780000  0.09920000  0.38390000  1.0
  C  C341  1  0.40720000  0.15270000  0.40150000  1.0
  C  C342  1  0.13170000  0.30260000  0.52540000  1.0
  C  C343  1  0.31870000  0.14200000  0.47100000  1.0
  C  C344  1  0.42810000  0.09900000  0.42230000  1.0
  C  C345  1  0.34090000  0.09400000  0.34600000  1.0
  C  C346  1  0.70780000  0.81630000  0.00840000  1.0
  C  C347  1  0.73730000  0.89620000  0.00310000  1.0
  C  C348  1  0.80360000  0.90540000  0.98670000  1.0
  C  C349  1  0.83210000  0.82100000  0.97500000  1.0
  C  C350  1  0.79250000  0.73630000  0.98120000  1.0
  C  C351  1  0.72790000  0.73280000  0.99640000  1.0
  C  C352  1  0.89640000  0.83570000  0.95710000  1.0
  C  C353  1  0.97990000  0.87840000  0.95900000  1.0
  C  C354  1  0.03850000  0.89000000  0.94210000  1.0
  C  C355  1  0.01700000  0.85050000  0.92360000  1.0
  C  C356  1  0.93580000  0.79840000  0.92050000  1.0
  C  C357  1  0.88220000  0.79170000  0.93750000  1.0
  C  C358  1  0.91550000  0.74760000  0.90160000  1.0
  C  C359  1  0.90030000  0.79390000  0.88110000  1.0
  C  C360  1  0.87730000  0.73900000  0.86480000  1.0
  C  C361  1  0.86430000  0.64570000  0.86500000  1.0
  C  C362  1  0.87780000  0.59920000  0.88390000  1.0
  C  C363  1  0.90720000  0.65270000  0.90150000  1.0
  C  C364  1  0.63170000  0.80260000  0.02540000  1.0
  C  C365  1  0.81870000  0.64200000  0.97100000  1.0
  C  C366  1  0.92810000  0.59900000  0.92230000  1.0
  C  C367  1  0.84090000  0.59400000  0.84600000  1.0
  C  C368  1  0.18370000  0.79220000  0.25840000  1.0
  C  C369  1  0.10380000  0.76270000  0.25310000  1.0
  C  C370  1  0.09460000  0.69640000  0.23670000  1.0
  C  C371  1  0.17900000  0.66790000  0.22500000  1.0
  C  C372  1  0.26370000  0.70750000  0.23120000  1.0
  C  C373  1  0.26720000  0.77210000  0.24640000  1.0
  C  C374  1  0.16430000  0.60360000  0.20710000  1.0
  C  C375  1  0.12160000  0.52010000  0.20900000  1.0
  C  C376  1  0.11000000  0.46150000  0.19210000  1.0
  C  C377  1  0.14950000  0.48300000  0.17360000  1.0
  C  C378  1  0.20160000  0.56420000  0.17050000  1.0
  C  C379  1  0.20830000  0.61780000  0.18750000  1.0
  C  C380  1  0.25240000  0.58450000  0.15160000  1.0
  C  C381  1  0.20610000  0.59970000  0.13110000  1.0
  C  C382  1  0.26100000  0.62270000  0.11480000  1.0
  C  C383  1  0.35430000  0.63570000  0.11500000  1.0
  C  C384  1  0.40080000  0.62220000  0.13390000  1.0
  C  C385  1  0.34730000  0.59280000  0.15150000  1.0
  C  C386  1  0.19740000  0.86830000  0.27540000  1.0
  C  C387  1  0.35800000  0.68130000  0.22100000  1.0
  C  C388  1  0.40100000  0.57190000  0.17230000  1.0
  C  C389  1  0.40600000  0.65910000  0.09600000  1.0
  C  C390  1  0.68370000  0.29220000  0.75840000  1.0
  C  C391  1  0.60380000  0.26270000  0.75310000  1.0
  C  C392  1  0.59460000  0.19640000  0.73670000  1.0
  C  C393  1  0.67900000  0.16790000  0.72500000  1.0
  C  C394  1  0.76370000  0.20750000  0.73120000  1.0
  C  C395  1  0.76720000  0.27210000  0.74640000  1.0
  C  C396  1  0.66430000  0.10360000  0.70710000  1.0
  C  C397  1  0.62160000  0.02010000  0.70900000  1.0
  C  C398  1  0.61000000  0.96150000  0.69210000  1.0
  C  C399  1  0.64950000  0.98300000  0.67360000  1.0
  C  C400  1  0.70160000  0.06420000  0.67050000  1.0
  C  C401  1  0.70830000  0.11780000  0.68750000  1.0
  C  C402  1  0.75240000  0.08450000  0.65160000  1.0
  C  C403  1  0.70610000  0.09970000  0.63110000  1.0
  C  C404  1  0.76100000  0.12270000  0.61480000  1.0
  C  C405  1  0.85430000  0.13570000  0.61500000  1.0
  C  C406  1  0.90080000  0.12220000  0.63390000  1.0
  C  C407  1  0.84730000  0.09280000  0.65150000  1.0
  C  C408  1  0.69740000  0.36830000  0.77540000  1.0
  C  C409  1  0.85800000  0.18130000  0.72100000  1.0
  C  C410  1  0.90100000  0.07190000  0.67230000  1.0
  C  C411  1  0.90600000  0.15910000  0.59600000  1.0
  C  C412  1  0.81630000  0.20780000  0.25840000  1.0
  C  C413  1  0.89620000  0.23730000  0.25310000  1.0
  C  C414  1  0.90540000  0.30360000  0.23670000  1.0
  C  C415  1  0.82100000  0.33210000  0.22500000  1.0
  C  C416  1  0.73630000  0.29250000  0.23120000  1.0
  C  C417  1  0.73280000  0.22790000  0.24640000  1.0
  C  C418  1  0.83570000  0.39640000  0.20710000  1.0
  C  C419  1  0.87840000  0.47990000  0.20900000  1.0
  C  C420  1  0.89000000  0.53850000  0.19210000  1.0
  C  C421  1  0.85050000  0.51700000  0.17360000  1.0
  C  C422  1  0.79840000  0.43580000  0.17050000  1.0
  C  C423  1  0.79170000  0.38220000  0.18750000  1.0
  C  C424  1  0.74760000  0.41550000  0.15160000  1.0
  C  C425  1  0.79390000  0.40030000  0.13110000  1.0
  C  C426  1  0.73900000  0.37730000  0.11480000  1.0
  C  C427  1  0.64570000  0.36430000  0.11500000  1.0
  C  C428  1  0.59920000  0.37780000  0.13390000  1.0
  C  C429  1  0.65270000  0.40720000  0.15150000  1.0
  C  C430  1  0.80260000  0.13170000  0.27540000  1.0
  C  C431  1  0.64200000  0.31870000  0.22100000  1.0
  C  C432  1  0.59900000  0.42810000  0.17230000  1.0
  C  C433  1  0.59400000  0.34090000  0.09600000  1.0
  C  C434  1  0.31630000  0.70780000  0.75840000  1.0
  C  C435  1  0.39620000  0.73730000  0.75310000  1.0
  C  C436  1  0.40540000  0.80360000  0.73670000  1.0
  C  C437  1  0.32100000  0.83210000  0.72500000  1.0
  C  C438  1  0.23630000  0.79250000  0.73120000  1.0
  C  C439  1  0.23280000  0.72790000  0.74640000  1.0
  C  C440  1  0.33570000  0.89640000  0.70710000  1.0
  C  C441  1  0.37840000  0.97990000  0.70900000  1.0
  C  C442  1  0.39000000  0.03850000  0.69210000  1.0
  C  C443  1  0.35050000  0.01700000  0.67360000  1.0
  C  C444  1  0.29840000  0.93580000  0.67050000  1.0
  C  C445  1  0.29170000  0.88220000  0.68750000  1.0
  C  C446  1  0.24760000  0.91550000  0.65160000  1.0
  C  C447  1  0.29390000  0.90030000  0.63110000  1.0
  C  C448  1  0.23900000  0.87730000  0.61480000  1.0
  C  C449  1  0.14570000  0.86430000  0.61500000  1.0
  C  C450  1  0.09920000  0.87780000  0.63390000  1.0
  C  C451  1  0.15270000  0.90720000  0.65150000  1.0
  C  C452  1  0.30260000  0.63170000  0.77540000  1.0
  C  C453  1  0.14200000  0.81870000  0.72100000  1.0
  C  C454  1  0.09900000  0.92810000  0.67230000  1.0
  C  C455  1  0.09400000  0.84090000  0.59600000  1.0
  C  C456  1  0.70780000  0.68370000  0.24160000  1.0
  C  C457  1  0.73730000  0.60380000  0.24690000  1.0
  C  C458  1  0.80360000  0.59460000  0.26330000  1.0
  C  C459  1  0.83210000  0.67900000  0.27500000  1.0
  C  C460  1  0.79250000  0.76370000  0.26880000  1.0
  C  C461  1  0.72790000  0.76720000  0.25360000  1.0
  C  C462  1  0.89640000  0.66430000  0.29290000  1.0
  C  C463  1  0.97990000  0.62160000  0.29100000  1.0
  C  C464  1  0.03850000  0.61000000  0.30790000  1.0
  C  C465  1  0.01700000  0.64950000  0.32640000  1.0
  C  C466  1  0.93580000  0.70160000  0.32950000  1.0
  C  C467  1  0.88220000  0.70830000  0.31250000  1.0
  C  C468  1  0.91550000  0.75240000  0.34840000  1.0
  C  C469  1  0.90030000  0.70610000  0.36890000  1.0
  C  C470  1  0.87730000  0.76100000  0.38520000  1.0
  C  C471  1  0.86430000  0.85430000  0.38500000  1.0
  C  C472  1  0.87780000  0.90080000  0.36610000  1.0
  C  C473  1  0.90720000  0.84730000  0.34850000  1.0
  C  C474  1  0.63170000  0.69740000  0.22460000  1.0
  C  C475  1  0.81870000  0.85800000  0.27900000  1.0
  C  C476  1  0.92810000  0.90100000  0.32770000  1.0
  C  C477  1  0.84090000  0.90600000  0.40400000  1.0
  C  C478  1  0.20780000  0.18370000  0.74160000  1.0
  C  C479  1  0.23730000  0.10380000  0.74690000  1.0
  C  C480  1  0.30360000  0.09460000  0.76330000  1.0
  C  C481  1  0.33210000  0.17900000  0.77500000  1.0
  C  C482  1  0.29250000  0.26370000  0.76880000  1.0
  C  C483  1  0.22790000  0.26720000  0.75360000  1.0
  C  C484  1  0.39640000  0.16430000  0.79290000  1.0
  C  C485  1  0.47990000  0.12160000  0.79100000  1.0
  C  C486  1  0.53850000  0.11000000  0.80790000  1.0
  C  C487  1  0.51700000  0.14950000  0.82640000  1.0
  C  C488  1  0.43580000  0.20160000  0.82950000  1.0
  C  C489  1  0.38220000  0.20830000  0.81250000  1.0
  C  C490  1  0.41550000  0.25240000  0.84840000  1.0
  C  C491  1  0.40030000  0.20610000  0.86890000  1.0
  C  C492  1  0.37730000  0.26100000  0.88520000  1.0
  C  C493  1  0.36430000  0.35430000  0.88500000  1.0
  C  C494  1  0.37780000  0.40080000  0.86610000  1.0
  C  C495  1  0.40720000  0.34730000  0.84850000  1.0
  C  C496  1  0.13170000  0.19740000  0.72460000  1.0
  C  C497  1  0.31870000  0.35800000  0.77900000  1.0
  C  C498  1  0.42810000  0.40100000  0.82770000  1.0
  C  C499  1  0.34090000  0.40600000  0.90400000  1.0
  C  C500  1  0.29220000  0.31630000  0.24160000  1.0
  C  C501  1  0.26270000  0.39620000  0.24690000  1.0
  C  C502  1  0.19640000  0.40540000  0.26330000  1.0
  C  C503  1  0.16790000  0.32100000  0.27500000  1.0
  C  C504  1  0.20750000  0.23630000  0.26880000  1.0
  C  C505  1  0.27210000  0.23280000  0.25360000  1.0
  C  C506  1  0.10360000  0.33570000  0.29290000  1.0
  C  C507  1  0.02010000  0.37840000  0.29100000  1.0
  C  C508  1  0.96150000  0.39000000  0.30790000  1.0
  C  C509  1  0.98300000  0.35050000  0.32640000  1.0
  C  C510  1  0.06420000  0.29840000  0.32950000  1.0
  C  C511  1  0.11780000  0.29170000  0.31250000  1.0
  C  C512  1  0.08450000  0.24760000  0.34840000  1.0
  C  C513  1  0.09970000  0.29390000  0.36890000  1.0
  C  C514  1  0.12270000  0.23900000  0.38520000  1.0
  C  C515  1  0.13570000  0.14570000  0.38500000  1.0
  C  C516  1  0.12220000  0.09920000  0.36610000  1.0
  C  C517  1  0.09280000  0.15270000  0.34850000  1.0
  C  C518  1  0.36830000  0.30260000  0.22460000  1.0
  C  C519  1  0.18130000  0.14200000  0.27900000  1.0
  C  C520  1  0.07190000  0.09900000  0.32770000  1.0
  C  C521  1  0.15910000  0.09400000  0.40400000  1.0
  C  C522  1  0.79220000  0.81630000  0.74160000  1.0
  C  C523  1  0.76270000  0.89620000  0.74690000  1.0
  C  C524  1  0.69640000  0.90540000  0.76330000  1.0
  C  C525  1  0.66790000  0.82100000  0.77500000  1.0
  C  C526  1  0.70750000  0.73630000  0.76880000  1.0
  C  C527  1  0.77210000  0.73280000  0.75360000  1.0
  C  C528  1  0.60360000  0.83570000  0.79290000  1.0
  C  C529  1  0.52010000  0.87840000  0.79100000  1.0
  C  C530  1  0.46150000  0.89000000  0.80790000  1.0
  C  C531  1  0.48300000  0.85050000  0.82640000  1.0
  C  C532  1  0.56420000  0.79840000  0.82950000  1.0
  C  C533  1  0.61780000  0.79170000  0.81250000  1.0
  C  C534  1  0.58450000  0.74760000  0.84840000  1.0
  C  C535  1  0.59970000  0.79390000  0.86890000  1.0
  C  C536  1  0.62270000  0.73900000  0.88520000  1.0
  C  C537  1  0.63570000  0.64570000  0.88500000  1.0
  C  C538  1  0.62220000  0.59920000  0.86610000  1.0
  C  C539  1  0.59280000  0.65270000  0.84850000  1.0
  C  C540  1  0.86830000  0.80260000  0.72460000  1.0
  C  C541  1  0.68130000  0.64200000  0.77900000  1.0
  C  C542  1  0.57190000  0.59900000  0.82770000  1.0
  C  C543  1  0.65910000  0.59400000  0.90400000  1.0
  C  C544  1  0.00000000  0.00000000  0.44300000  1.0
  C  C545  1  0.50000000  0.50000000  0.94300000  1.0
  C  C546  1  0.00000000  0.00000000  0.55700000  1.0
  C  C547  1  0.50000000  0.50000000  0.05700000  1.0
  C  C548  1  0.50000000  0.00000000  0.30700000  1.0
  C  C549  1  0.00000000  0.50000000  0.80700000  1.0
  C  C550  1  0.50000000  0.00000000  0.19300000  1.0
  C  C551  1  0.00000000  0.50000000  0.69300000  1.0
  O  O552  1  0.37410000  0.90900000  0.46560000  1.0
  O  O553  1  0.21890000  0.88340000  0.46680000  1.0
  O  O554  1  0.09500000  0.74450000  0.53520000  1.0
  O  O555  1  0.12260000  0.59510000  0.52920000  1.0
  O  O556  1  0.04480000  0.63150000  0.57108000  1.0
  O  O557  1  0.11360000  0.49770000  0.56961000  1.0
  O  O558  1  0.13630000  0.67860000  0.67110000  1.0
  O  O559  1  0.00180000  0.67680000  0.65194000  1.0
  O  O560  1  0.07550000  0.01180000  0.45130000  1.0
  O  O561  1  0.87410000  0.40900000  0.96560000  1.0
  O  O562  1  0.71890000  0.38340000  0.96680000  1.0
  O  O563  1  0.59500000  0.24450000  0.03520000  1.0
  O  O564  1  0.62260000  0.09510000  0.02920000  1.0
  O  O565  1  0.54480000  0.13150000  0.07108000  1.0
  O  O566  1  0.61360000  0.99770000  0.06961000  1.0
  O  O567  1  0.63630000  0.17860000  0.17110000  1.0
  O  O568  1  0.50180000  0.17680000  0.15194000  1.0
  O  O569  1  0.57550000  0.51180000  0.95130000  1.0
  O  O570  1  0.62590000  0.09100000  0.46560000  1.0
  O  O571  1  0.78110000  0.11660000  0.46680000  1.0
  O  O572  1  0.90500000  0.25550000  0.53520000  1.0
  O  O573  1  0.87740000  0.40490000  0.52920000  1.0
  O  O574  1  0.95520000  0.36850000  0.57108000  1.0
  O  O575  1  0.88640000  0.50230000  0.56961000  1.0
  O  O576  1  0.86370000  0.32140000  0.67110000  1.0
  O  O577  1  0.99820000  0.32320000  0.65194000  1.0
  O  O578  1  0.92450000  0.98820000  0.45130000  1.0
  O  O579  1  0.12590000  0.59100000  0.96560000  1.0
  O  O580  1  0.28110000  0.61660000  0.96680000  1.0
  O  O581  1  0.40500000  0.75550000  0.03520000  1.0
  O  O582  1  0.37740000  0.90490000  0.02920000  1.0
  O  O583  1  0.45520000  0.86850000  0.07108000  1.0
  O  O584  1  0.38640000  0.00230000  0.06961000  1.0
  O  O585  1  0.36370000  0.82140000  0.17110000  1.0
  O  O586  1  0.49820000  0.82320000  0.15194000  1.0
  O  O587  1  0.42450000  0.48820000  0.95130000  1.0
  O  O588  1  0.90900000  0.62590000  0.53440000  1.0
  O  O589  1  0.88340000  0.78110000  0.53320000  1.0
  O  O590  1  0.74450000  0.90500000  0.46480000  1.0
  O  O591  1  0.59510000  0.87740000  0.47080000  1.0
  O  O592  1  0.63150000  0.95520000  0.42892000  1.0
  O  O593  1  0.49770000  0.88640000  0.43039000  1.0
  O  O594  1  0.67860000  0.86370000  0.32890000  1.0
  O  O595  1  0.67680000  0.99820000  0.34806000  1.0
  O  O596  1  0.01180000  0.92450000  0.54870000  1.0
  O  O597  1  0.40900000  0.12590000  0.03440000  1.0
  O  O598  1  0.38340000  0.28110000  0.03320000  1.0
  O  O599  1  0.24450000  0.40500000  0.96480000  1.0
  O  O600  1  0.09510000  0.37740000  0.97080000  1.0
  O  O601  1  0.13150000  0.45520000  0.92892000  1.0
  O  O602  1  0.99770000  0.38640000  0.93039000  1.0
  O  O603  1  0.17860000  0.36370000  0.82890000  1.0
  O  O604  1  0.17680000  0.49820000  0.84806000  1.0
  O  O605  1  0.51180000  0.42450000  0.04870000  1.0
  O  O606  1  0.09100000  0.37410000  0.53440000  1.0
  O  O607  1  0.11660000  0.21890000  0.53320000  1.0
  O  O608  1  0.25550000  0.09500000  0.46480000  1.0
  O  O609  1  0.40490000  0.12260000  0.47080000  1.0
  O  O610  1  0.36850000  0.04480000  0.42892000  1.0
  O  O611  1  0.50230000  0.11360000  0.43039000  1.0
  O  O612  1  0.32140000  0.13630000  0.32890000  1.0
  O  O613  1  0.32320000  0.00180000  0.34806000  1.0
  O  O614  1  0.98820000  0.07550000  0.54870000  1.0
  O  O615  1  0.59100000  0.87410000  0.03440000  1.0
  O  O616  1  0.61660000  0.71890000  0.03320000  1.0
  O  O617  1  0.75550000  0.59500000  0.96480000  1.0
  O  O618  1  0.90490000  0.62260000  0.97080000  1.0
  O  O619  1  0.86850000  0.54480000  0.92892000  1.0
  O  O620  1  0.00230000  0.61360000  0.93039000  1.0
  O  O621  1  0.82140000  0.63630000  0.82890000  1.0
  O  O622  1  0.82320000  0.50180000  0.84806000  1.0
  O  O623  1  0.48820000  0.57550000  0.04870000  1.0
  O  O624  1  0.12590000  0.90900000  0.28440000  1.0
  O  O625  1  0.28110000  0.88340000  0.28320000  1.0
  O  O626  1  0.40500000  0.74450000  0.21480000  1.0
  O  O627  1  0.37740000  0.59510000  0.22080000  1.0
  O  O628  1  0.45520000  0.63150000  0.17892000  1.0
  O  O629  1  0.38640000  0.49770000  0.18039000  1.0
  O  O630  1  0.36370000  0.67860000  0.07890000  1.0
  O  O631  1  0.49820000  0.67680000  0.09806000  1.0
  O  O632  1  0.42450000  0.01180000  0.29870000  1.0
  O  O633  1  0.62590000  0.40900000  0.78440000  1.0
  O  O634  1  0.78110000  0.38340000  0.78320000  1.0
  O  O635  1  0.90500000  0.24450000  0.71480000  1.0
  O  O636  1  0.87740000  0.09510000  0.72080000  1.0
  O  O637  1  0.95520000  0.13150000  0.67892000  1.0
  O  O638  1  0.88640000  0.99770000  0.68039000  1.0
  O  O639  1  0.86370000  0.17860000  0.57890000  1.0
  O  O640  1  0.99820000  0.17680000  0.59806000  1.0
  O  O641  1  0.92450000  0.51180000  0.79870000  1.0
  O  O642  1  0.87410000  0.09100000  0.28440000  1.0
  O  O643  1  0.71890000  0.11660000  0.28320000  1.0
  O  O644  1  0.59500000  0.25550000  0.21480000  1.0
  O  O645  1  0.62260000  0.40490000  0.22080000  1.0
  O  O646  1  0.54480000  0.36850000  0.17892000  1.0
  O  O647  1  0.61360000  0.50230000  0.18039000  1.0
  O  O648  1  0.63630000  0.32140000  0.07890000  1.0
  O  O649  1  0.50180000  0.32320000  0.09806000  1.0
  O  O650  1  0.57550000  0.98820000  0.29870000  1.0
  O  O651  1  0.37410000  0.59100000  0.78440000  1.0
  O  O652  1  0.21890000  0.61660000  0.78320000  1.0
  O  O653  1  0.09500000  0.75550000  0.71480000  1.0
  O  O654  1  0.12260000  0.90490000  0.72080000  1.0
  O  O655  1  0.04480000  0.86850000  0.67892000  1.0
  O  O656  1  0.11360000  0.00230000  0.68039000  1.0
  O  O657  1  0.13630000  0.82140000  0.57890000  1.0
  O  O658  1  0.00180000  0.82320000  0.59806000  1.0
  O  O659  1  0.07550000  0.48820000  0.79870000  1.0
  O  O660  1  0.59100000  0.62590000  0.21560000  1.0
  O  O661  1  0.61660000  0.78110000  0.21680000  1.0
  O  O662  1  0.75550000  0.90500000  0.28520000  1.0
  O  O663  1  0.90490000  0.87740000  0.27920000  1.0
  O  O664  1  0.86850000  0.95520000  0.32108000  1.0
  O  O665  1  0.00230000  0.88640000  0.31961000  1.0
  O  O666  1  0.82140000  0.86370000  0.42110000  1.0
  O  O667  1  0.82320000  0.99820000  0.40194000  1.0
  O  O668  1  0.48820000  0.92450000  0.20130000  1.0
  O  O669  1  0.09100000  0.12590000  0.71560000  1.0
  O  O670  1  0.11660000  0.28110000  0.71680000  1.0
  O  O671  1  0.25550000  0.40500000  0.78520000  1.0
  O  O672  1  0.40490000  0.37740000  0.77920000  1.0
  O  O673  1  0.36850000  0.45520000  0.82108000  1.0
  O  O674  1  0.50230000  0.38640000  0.81961000  1.0
  O  O675  1  0.32140000  0.36370000  0.92110000  1.0
  O  O676  1  0.32320000  0.49820000  0.90194000  1.0
  O  O677  1  0.98820000  0.42450000  0.70130000  1.0
  O  O678  1  0.40900000  0.37410000  0.21560000  1.0
  O  O679  1  0.38340000  0.21890000  0.21680000  1.0
  O  O680  1  0.24450000  0.09500000  0.28520000  1.0
  O  O681  1  0.09510000  0.12260000  0.27920000  1.0
  O  O682  1  0.13150000  0.04480000  0.32108000  1.0
  O  O683  1  0.99770000  0.11360000  0.31961000  1.0
  O  O684  1  0.17860000  0.13630000  0.42110000  1.0
  O  O685  1  0.17680000  0.00180000  0.40194000  1.0
  O  O686  1  0.51180000  0.07550000  0.20130000  1.0
  O  O687  1  0.90900000  0.87410000  0.71560000  1.0
  O  O688  1  0.88340000  0.71890000  0.71680000  1.0
  O  O689  1  0.74450000  0.59500000  0.78520000  1.0
  O  O690  1  0.59510000  0.62260000  0.77920000  1.0
  O  O691  1  0.63150000  0.54480000  0.82108000  1.0
  O  O692  1  0.49770000  0.61360000  0.81961000  1.0
  O  O693  1  0.67860000  0.63630000  0.92110000  1.0
  O  O694  1  0.67680000  0.50180000  0.90194000  1.0
  O  O695  1  0.01180000  0.57550000  0.70130000  1.0
