# generated using pymatgen
data_CuSiH10W12C12(N2O15)2
_symmetry_space_group_name_H-M   'P 1'
_cell_length_a   10.60100000
_cell_length_b   13.45640000
_cell_length_c   20.03800000
_cell_angle_alpha   98.63860000
_cell_angle_beta   90.00000000
_cell_angle_gamma   113.19700000
_symmetry_Int_Tables_number   1
_chemical_formula_structural   CuSiH10W12C12(N2O15)2
_chemical_formula_sum   'Cu2 Si2 H20 W24 C24 N8 O60'
_cell_volume   2592.04098748
_cell_formula_units_Z   2
loop_
 _symmetry_equiv_pos_site_id
 _symmetry_equiv_pos_as_xyz
  1  'x, y, z'
loop_
 _atom_site_type_symbol
 _atom_site_label
 _atom_site_symmetry_multiplicity
 _atom_site_fract_x
 _atom_site_fract_y
 _atom_site_fract_z
 _atom_site_occupancy
  Cu  Cu0  1  0.00000000  0.00000000  0.00000000  1.0
  Cu  Cu1  1  0.00000000  0.00000000  0.50000000  1.0
  Si  Si2  1  0.50210000  0.00000000  0.25000000  1.0
  Si  Si3  1  0.49790000  0.00000000  0.75000000  1.0
  H  H4  1  0.46050000  0.36620000  0.56710000  1.0
  H  H5  1  0.29060000  0.19700000  0.51840000  1.0
  H  H6  1  0.90570000  0.36620000  0.06710000  1.0
  H  H7  1  0.90640000  0.19700000  0.01840000  1.0
  H  H8  1  0.34640000  0.47520000  0.41190000  1.0
  H  H9  1  0.76640000  0.64340000  0.07620000  1.0
  H  H10  1  0.95260000  0.17800000  0.43160000  1.0
  H  H11  1  0.12300000  0.35660000  0.42380000  1.0
  H  H12  1  0.87700000  0.64340000  0.57620000  1.0
  H  H13  1  0.09360000  0.80300000  0.98160000  1.0
  H  H14  1  0.77460000  0.82200000  0.06840000  1.0
  H  H15  1  0.09430000  0.63380000  0.93290000  1.0
  H  H16  1  0.04740000  0.82200000  0.56840000  1.0
  H  H17  1  0.70940000  0.80300000  0.48160000  1.0
  H  H18  1  0.23360000  0.35660000  0.92380000  1.0
  H  H19  1  0.53950000  0.63380000  0.43290000  1.0
  H  H20  1  0.12880000  0.47520000  0.91190000  1.0
  H  H21  1  0.87120000  0.52480000  0.08810000  1.0
  H  H22  1  0.22540000  0.17800000  0.93160000  1.0
  H  H23  1  0.65360000  0.52480000  0.58810000  1.0
  W  W24  1  0.76600000  0.04880000  0.13669000  1.0
  W  W25  1  0.16650000  0.79328000  0.71055000  1.0
  W  W26  1  0.39323000  0.76302000  0.32823000  1.0
  W  W27  1  0.24485000  0.97072000  0.36770000  1.0
  W  W28  1  0.71720000  0.95120000  0.36331000  1.0
  W  W29  1  0.23400000  0.95120000  0.86331000  1.0
  W  W30  1  0.27413000  0.02928000  0.13230000  1.0
  W  W31  1  0.62729000  0.79664000  0.69872000  1.0
  W  W32  1  0.83350000  0.20672000  0.28945000  1.0
  W  W33  1  0.63021000  0.23698000  0.17177000  1.0
  W  W34  1  0.75515000  0.02928000  0.63230000  1.0
  W  W35  1  0.37322000  0.20672000  0.78945000  1.0
  W  W36  1  0.72587000  0.97072000  0.86770000  1.0
  W  W37  1  0.62678000  0.79328000  0.21055000  1.0
  W  W38  1  0.58819000  0.15364000  0.91477000  1.0
  W  W39  1  0.37271000  0.20336000  0.30128000  1.0
  W  W40  1  0.56545000  0.15364000  0.41477000  1.0
  W  W41  1  0.41181000  0.84636000  0.08523000  1.0
  W  W42  1  0.36979000  0.76302000  0.82823000  1.0
  W  W43  1  0.83065000  0.20336000  0.80128000  1.0
  W  W44  1  0.60677000  0.23698000  0.67177000  1.0
  W  W45  1  0.16935000  0.79664000  0.19872000  1.0
  W  W46  1  0.43455000  0.84636000  0.58523000  1.0
  W  W47  1  0.28280000  0.04880000  0.63669000  1.0
  C  C48  1  0.83840000  0.79480000  0.05130000  1.0
  C  C49  1  0.59100000  0.51420000  0.55250000  1.0
  C  C50  1  0.22720000  0.21500000  0.49640000  1.0
  C  C51  1  0.02120000  0.40520000  0.98720000  1.0
  C  C52  1  0.98780000  0.21500000  0.99640000  1.0
  C  C53  1  0.77280000  0.78500000  0.50360000  1.0
  C  C54  1  0.13590000  0.30340000  0.44430000  1.0
  C  C55  1  0.05660000  0.58000000  0.95980000  1.0
  C  C56  1  0.52340000  0.58000000  0.45980000  1.0
  C  C57  1  0.92320000  0.51420000  0.05250000  1.0
  C  C58  1  0.47660000  0.42000000  0.54020000  1.0
  C  C59  1  0.16750000  0.30340000  0.94430000  1.0
  C  C60  1  0.61600000  0.59480000  0.51280000  1.0
  C  C61  1  0.83250000  0.69660000  0.05570000  1.0
  C  C62  1  0.94340000  0.42000000  0.04020000  1.0
  C  C63  1  0.97880000  0.59480000  0.01280000  1.0
  C  C64  1  0.16160000  0.20520000  0.94870000  1.0
  C  C65  1  0.01220000  0.78500000  0.00360000  1.0
  C  C66  1  0.40900000  0.48580000  0.44750000  1.0
  C  C67  1  0.38400000  0.40520000  0.48720000  1.0
  C  C68  1  0.95640000  0.79480000  0.55130000  1.0
  C  C69  1  0.86410000  0.69660000  0.55570000  1.0
  C  C70  1  0.04360000  0.20520000  0.44870000  1.0
  C  C71  1  0.07680000  0.48580000  0.94750000  1.0
  N  N72  1  0.04960000  0.14800000  0.98160000  1.0
  N  N73  1  0.74210000  0.68840000  0.52330000  1.0
  N  N74  1  0.94630000  0.68840000  0.02330000  1.0
  N  N75  1  0.90160000  0.85200000  0.51840000  1.0
  N  N76  1  0.25790000  0.31160000  0.47670000  1.0
  N  N77  1  0.09840000  0.14800000  0.48160000  1.0
  N  N78  1  0.95040000  0.85200000  0.01840000  1.0
  N  N79  1  0.05370000  0.31160000  0.97670000  1.0
  O  O80  1  0.44280000  0.05980000  0.31180000  1.0
  O  O81  1  0.63330000  0.09040000  0.22250000  1.0
  O  O82  1  0.71740000  0.22120000  0.35810000  1.0
  O  O83  1  0.49120000  0.70340000  0.26230000  1.0
  O  O84  1  0.23220000  0.09800000  0.34670000  1.0
  O  O85  1  0.43910000  0.17280000  0.61560000  1.0
  O  O86  1  0.25740000  0.07280000  0.82270000  1.0
  O  O87  1  0.67510000  0.13620000  0.62930000  1.0
  O  O88  1  0.18460000  0.92720000  0.67730000  1.0
  O  O89  1  0.13420000  0.90200000  0.15330000  1.0
  O  O90  1  0.62760000  0.03980000  0.40820000  1.0
  O  O91  1  0.54290000  0.90960000  0.27750000  1.0
  O  O92  1  0.55720000  0.94020000  0.68820000  1.0
  O  O93  1  0.25250000  0.14700000  0.70650000  1.0
  O  O94  1  0.38300000  0.94020000  0.18820000  1.0
  O  O95  1  0.72190000  0.89000000  0.78200000  1.0
  O  O96  1  0.81540000  0.07280000  0.32270000  1.0
  O  O97  1  0.61260000  0.93620000  0.56270000  1.0
  O  O98  1  0.73370000  0.17280000  0.11560000  1.0
  O  O99  1  0.23690000  0.75220000  0.11690000  1.0
  O  O100  1  0.37240000  0.96020000  0.59180000  1.0
  O  O101  1  0.87460000  0.03660000  0.07390000  1.0
  O  O102  1  0.74750000  0.85300000  0.29350000  1.0
  O  O103  1  0.12540000  0.96340000  0.92610000  1.0
  O  O104  1  0.89450000  0.14700000  0.20650000  1.0
  O  O105  1  0.16810000  0.89000000  0.28200000  1.0
  O  O106  1  0.76780000  0.90200000  0.65330000  1.0
  O  O107  1  0.46110000  0.13620000  0.12930000  1.0
  O  O108  1  0.32490000  0.86380000  0.37070000  1.0
  O  O109  1  0.27810000  0.11000000  0.21800000  1.0
  O  O110  1  0.16200000  0.03660000  0.57390000  1.0
  O  O111  1  0.61700000  0.05980000  0.81180000  1.0
  O  O112  1  0.72680000  0.25360000  0.74880000  1.0
  O  O113  1  0.27320000  0.74640000  0.25120000  1.0
  O  O114  1  0.28260000  0.77880000  0.64190000  1.0
  O  O115  1  0.50880000  0.29660000  0.73770000  1.0
  O  O116  1  0.41220000  0.03980000  0.90820000  1.0
  O  O117  1  0.36670000  0.90960000  0.77750000  1.0
  O  O118  1  0.58780000  0.96020000  0.09180000  1.0
  O  O119  1  0.50380000  0.22120000  0.85810000  1.0
  O  O120  1  0.48470000  0.24780000  0.38310000  1.0
  O  O121  1  0.86580000  0.09800000  0.84670000  1.0
  O  O122  1  0.67640000  0.06380000  0.93730000  1.0
  O  O123  1  0.56090000  0.82720000  0.38440000  1.0
  O  O124  1  0.76310000  0.24780000  0.88310000  1.0
  O  O125  1  0.74260000  0.92720000  0.17730000  1.0
  O  O126  1  0.53890000  0.86380000  0.87070000  1.0
  O  O127  1  0.49620000  0.77880000  0.14190000  1.0
  O  O128  1  0.32360000  0.93620000  0.06270000  1.0
  O  O129  1  0.52680000  0.25360000  0.24880000  1.0
  O  O130  1  0.51530000  0.75220000  0.61690000  1.0
  O  O131  1  0.26630000  0.82720000  0.88440000  1.0
  O  O132  1  0.21220000  0.70340000  0.76230000  1.0
  O  O133  1  0.47320000  0.74640000  0.75120000  1.0
  O  O134  1  0.38740000  0.06380000  0.43730000  1.0
  O  O135  1  0.78780000  0.29660000  0.23770000  1.0
  O  O136  1  0.10550000  0.85300000  0.79350000  1.0
  O  O137  1  0.83190000  0.11000000  0.71800000  1.0
  O  O138  1  0.83800000  0.96340000  0.42610000  1.0
  O  O139  1  0.45710000  0.09040000  0.72250000  1.0
