# generated using pymatgen
data_AgH8(CN)2
_symmetry_space_group_name_H-M   'P 1'
_cell_length_a   10.46180000
_cell_length_b   10.49470000
_cell_length_c   6.31300000
_cell_angle_alpha   90.00000000
_cell_angle_beta   115.31800000
_cell_angle_gamma   90.00000000
_symmetry_Int_Tables_number   1
_chemical_formula_structural   AgH8(CN)2
_chemical_formula_sum   'Ag4 H32 C8 N8'
_cell_volume   626.55009148
_cell_formula_units_Z   4
loop_
 _symmetry_equiv_pos_site_id
 _symmetry_equiv_pos_as_xyz
  1  'x, y, z'
loop_
 _atom_site_type_symbol
 _atom_site_label
 _atom_site_symmetry_multiplicity
 _atom_site_fract_x
 _atom_site_fract_y
 _atom_site_fract_z
 _atom_site_occupancy
  Ag  Ag0  1  0.50000000  0.00000000  0.50000000  1.0
  Ag  Ag1  1  0.00000000  0.50000000  0.50000000  1.0
  Ag  Ag2  1  0.50000000  0.00000000  0.00000000  1.0
  Ag  Ag3  1  0.00000000  0.50000000  0.00000000  1.0
  H  H4  1  0.39680000  0.26460000  0.58170000  1.0
  H  H5  1  0.32580000  0.17000000  0.69120000  1.0
  H  H6  1  0.30070000  0.14820000  0.24540000  1.0
  H  H7  1  0.24000000  0.05890000  0.35300000  1.0
  H  H8  1  0.89680000  0.76460000  0.58170000  1.0
  H  H9  1  0.82580000  0.67000000  0.69120000  1.0
  H  H10  1  0.80070000  0.64820000  0.24540000  1.0
  H  H11  1  0.74000000  0.55890000  0.35300000  1.0
  H  H12  1  0.60320000  0.26460000  0.91830000  1.0
  H  H13  1  0.67420000  0.17000000  0.80880000  1.0
  H  H14  1  0.69930000  0.14820000  0.25460000  1.0
  H  H15  1  0.76000000  0.05890000  0.14700000  1.0
  H  H16  1  0.10320000  0.76460000  0.91830000  1.0
  H  H17  1  0.17420000  0.67000000  0.80880000  1.0
  H  H18  1  0.19930000  0.64820000  0.25460000  1.0
  H  H19  1  0.26000000  0.55890000  0.14700000  1.0
  H  H20  1  0.60320000  0.73540000  0.41830000  1.0
  H  H21  1  0.67420000  0.83000000  0.30880000  1.0
  H  H22  1  0.69930000  0.85180000  0.75460000  1.0
  H  H23  1  0.76000000  0.94110000  0.64700000  1.0
  H  H24  1  0.10320000  0.23540000  0.41830000  1.0
  H  H25  1  0.17420000  0.33000000  0.30880000  1.0
  H  H26  1  0.19930000  0.35180000  0.75460000  1.0
  H  H27  1  0.26000000  0.44110000  0.64700000  1.0
  H  H28  1  0.39680000  0.73540000  0.08170000  1.0
  H  H29  1  0.32580000  0.83000000  0.19120000  1.0
  H  H30  1  0.30070000  0.85180000  0.74540000  1.0
  H  H31  1  0.24000000  0.94110000  0.85300000  1.0
  H  H32  1  0.89680000  0.23540000  0.08170000  1.0
  H  H33  1  0.82580000  0.33000000  0.19120000  1.0
  H  H34  1  0.80070000  0.35180000  0.74540000  1.0
  H  H35  1  0.74000000  0.44110000  0.85300000  1.0
  C  C36  1  0.31540000  0.21000000  0.54620000  1.0
  C  C37  1  0.81540000  0.71000000  0.54620000  1.0
  C  C38  1  0.68460000  0.21000000  0.95380000  1.0
  C  C39  1  0.18460000  0.71000000  0.95380000  1.0
  C  C40  1  0.68460000  0.79000000  0.45380000  1.0
  C  C41  1  0.18460000  0.29000000  0.45380000  1.0
  C  C42  1  0.31540000  0.79000000  0.04620000  1.0
  C  C43  1  0.81540000  0.29000000  0.04620000  1.0
  N  N44  1  0.31400000  0.11090000  0.38170000  1.0
  N  N45  1  0.81400000  0.61090000  0.38170000  1.0
  N  N46  1  0.68600000  0.11090000  0.11830000  1.0
  N  N47  1  0.18600000  0.61090000  0.11830000  1.0
  N  N48  1  0.68600000  0.88910000  0.61830000  1.0
  N  N49  1  0.18600000  0.38910000  0.61830000  1.0
  N  N50  1  0.31400000  0.88910000  0.88170000  1.0
  N  N51  1  0.81400000  0.38910000  0.88170000  1.0
