# generated using pymatgen
data_AgH8(CN)2
_symmetry_space_group_name_H-M   'P 1'
_cell_length_a   20.85500000
_cell_length_b   19.60000000
_cell_length_c   6.04090000
_cell_angle_alpha   90.00000000
_cell_angle_beta   114.21500000
_cell_angle_gamma   90.00000000
_symmetry_Int_Tables_number   1
_chemical_formula_structural   AgH8(CN)2
_chemical_formula_sum   'Ag16 H128 C32 N32'
_cell_volume   2252.00230231
_cell_formula_units_Z   16
loop_
 _symmetry_equiv_pos_site_id
 _symmetry_equiv_pos_as_xyz
  1  'x, y, z'
loop_
 _atom_site_type_symbol
 _atom_site_label
 _atom_site_symmetry_multiplicity
 _atom_site_fract_x
 _atom_site_fract_y
 _atom_site_fract_z
 _atom_site_occupancy
  Ag  Ag0  1  0.50000000  0.00000000  0.00000000  1.0
  Ag  Ag1  1  0.00000000  0.50000000  0.00000000  1.0
  Ag  Ag2  1  0.50000000  0.00000000  0.50000000  1.0
  Ag  Ag3  1  0.00000000  0.50000000  0.50000000  1.0
  Ag  Ag4  1  0.75000000  0.25000000  0.00000000  1.0
  Ag  Ag5  1  0.25000000  0.25000000  0.50000000  1.0
  Ag  Ag6  1  0.25000000  0.75000000  0.00000000  1.0
  Ag  Ag7  1  0.75000000  0.75000000  0.50000000  1.0
  Ag  Ag8  1  0.75000000  0.25000000  0.50000000  1.0
  Ag  Ag9  1  0.25000000  0.25000000  0.00000000  1.0
  Ag  Ag10  1  0.25000000  0.75000000  0.50000000  1.0
  Ag  Ag11  1  0.75000000  0.75000000  0.00000000  1.0
  Ag  Ag12  1  0.00000000  0.00000000  0.50000000  1.0
  Ag  Ag13  1  0.50000000  0.50000000  0.50000000  1.0
  Ag  Ag14  1  0.00000000  0.00000000  0.00000000  1.0
  Ag  Ag15  1  0.50000000  0.50000000  0.00000000  1.0
  H  H16  1  0.62090000  0.06540000  0.27700000  1.0
  H  H17  1  0.63790000  0.02280000  0.11000000  1.0
  H  H18  1  0.62640000  0.23790000  0.87830000  1.0
  H  H19  1  0.64670000  0.19500000  0.71910000  1.0
  H  H20  1  0.88470000  0.22880000  0.61240000  1.0
  H  H21  1  0.86650000  0.18530000  0.77540000  1.0
  H  H22  1  0.88860000  0.06470000  0.23550000  1.0
  H  H23  1  0.87030000  0.02180000  0.39850000  1.0
  H  H24  1  0.56210000  0.14080000  0.97550000  1.0
  H  H25  1  0.58100000  0.09520000  0.79720000  1.0
  H  H26  1  0.68150000  0.16440000  0.19950000  1.0
  H  H27  1  0.70090000  0.11810000  0.02470000  1.0
  H  H28  1  0.82700000  0.15830000  0.28970000  1.0
  H  H29  1  0.80510000  0.11200000  0.46170000  1.0
  H  H30  1  0.94750000  0.14090000  0.54740000  1.0
  H  H31  1  0.92570000  0.09500000  0.72000000  1.0
  H  H32  1  0.12090000  0.56540000  0.27700000  1.0
  H  H33  1  0.13790000  0.52280000  0.11000000  1.0
  H  H34  1  0.12640000  0.73790000  0.87830000  1.0
  H  H35  1  0.14670000  0.69500000  0.71910000  1.0
  H  H36  1  0.38470000  0.72880000  0.61240000  1.0
  H  H37  1  0.36650000  0.68530000  0.77540000  1.0
  H  H38  1  0.38860000  0.56470000  0.23550000  1.0
  H  H39  1  0.37030000  0.52180000  0.39850000  1.0
  H  H40  1  0.06210000  0.64080000  0.97550000  1.0
  H  H41  1  0.08100000  0.59520000  0.79720000  1.0
  H  H42  1  0.18150000  0.66440000  0.19950000  1.0
  H  H43  1  0.20090000  0.61810000  0.02470000  1.0
  H  H44  1  0.32700000  0.65830000  0.28970000  1.0
  H  H45  1  0.30510000  0.61200000  0.46170000  1.0
  H  H46  1  0.44750000  0.64090000  0.54740000  1.0
  H  H47  1  0.42570000  0.59500000  0.72000000  1.0
  H  H48  1  0.37910000  0.06540000  0.22300000  1.0
  H  H49  1  0.36210000  0.02280000  0.39000000  1.0
  H  H50  1  0.37360000  0.23790000  0.62170000  1.0
  H  H51  1  0.35330000  0.19500000  0.78090000  1.0
  H  H52  1  0.11530000  0.22880000  0.88760000  1.0
  H  H53  1  0.13350000  0.18530000  0.72460000  1.0
  H  H54  1  0.11140000  0.06470000  0.26450000  1.0
  H  H55  1  0.12970000  0.02180000  0.10150000  1.0
  H  H56  1  0.43790000  0.14080000  0.52450000  1.0
  H  H57  1  0.41900000  0.09520000  0.70280000  1.0
  H  H58  1  0.31850000  0.16440000  0.30050000  1.0
  H  H59  1  0.29910000  0.11810000  0.47530000  1.0
  H  H60  1  0.17300000  0.15830000  0.21030000  1.0
  H  H61  1  0.19490000  0.11200000  0.03830000  1.0
  H  H62  1  0.05250000  0.14090000  0.95260000  1.0
  H  H63  1  0.07430000  0.09500000  0.78000000  1.0
  H  H64  1  0.87910000  0.56540000  0.22300000  1.0
  H  H65  1  0.86210000  0.52280000  0.39000000  1.0
  H  H66  1  0.87360000  0.73790000  0.62170000  1.0
  H  H67  1  0.85330000  0.69500000  0.78090000  1.0
  H  H68  1  0.61530000  0.72880000  0.88760000  1.0
  H  H69  1  0.63350000  0.68530000  0.72460000  1.0
  H  H70  1  0.61140000  0.56470000  0.26450000  1.0
  H  H71  1  0.62970000  0.52180000  0.10150000  1.0
  H  H72  1  0.93790000  0.64080000  0.52450000  1.0
  H  H73  1  0.91900000  0.59520000  0.70280000  1.0
  H  H74  1  0.81850000  0.66440000  0.30050000  1.0
  H  H75  1  0.79910000  0.61810000  0.47530000  1.0
  H  H76  1  0.67300000  0.65830000  0.21030000  1.0
  H  H77  1  0.69490000  0.61200000  0.03830000  1.0
  H  H78  1  0.55250000  0.64090000  0.95260000  1.0
  H  H79  1  0.57430000  0.59500000  0.78000000  1.0
  H  H80  1  0.37910000  0.93460000  0.72300000  1.0
  H  H81  1  0.36210000  0.97720000  0.89000000  1.0
  H  H82  1  0.37360000  0.76210000  0.12170000  1.0
  H  H83  1  0.35330000  0.80500000  0.28090000  1.0
  H  H84  1  0.11530000  0.77120000  0.38760000  1.0
  H  H85  1  0.13350000  0.81470000  0.22460000  1.0
  H  H86  1  0.11140000  0.93530000  0.76450000  1.0
  H  H87  1  0.12970000  0.97820000  0.60150000  1.0
  H  H88  1  0.43790000  0.85920000  0.02450000  1.0
  H  H89  1  0.41900000  0.90480000  0.20280000  1.0
  H  H90  1  0.31850000  0.83560000  0.80050000  1.0
  H  H91  1  0.29910000  0.88190000  0.97530000  1.0
  H  H92  1  0.17300000  0.84170000  0.71030000  1.0
  H  H93  1  0.19490000  0.88800000  0.53830000  1.0
  H  H94  1  0.05250000  0.85910000  0.45260000  1.0
  H  H95  1  0.07430000  0.90500000  0.28000000  1.0
  H  H96  1  0.87910000  0.43460000  0.72300000  1.0
  H  H97  1  0.86210000  0.47720000  0.89000000  1.0
  H  H98  1  0.87360000  0.26210000  0.12170000  1.0
  H  H99  1  0.85330000  0.30500000  0.28090000  1.0
  H  H100  1  0.61530000  0.27120000  0.38760000  1.0
  H  H101  1  0.63350000  0.31470000  0.22460000  1.0
  H  H102  1  0.61140000  0.43530000  0.76450000  1.0
  H  H103  1  0.62970000  0.47820000  0.60150000  1.0
  H  H104  1  0.93790000  0.35920000  0.02450000  1.0
  H  H105  1  0.91900000  0.40480000  0.20280000  1.0
  H  H106  1  0.81850000  0.33560000  0.80050000  1.0
  H  H107  1  0.79910000  0.38190000  0.97530000  1.0
  H  H108  1  0.67300000  0.34170000  0.71030000  1.0
  H  H109  1  0.69490000  0.38800000  0.53830000  1.0
  H  H110  1  0.55250000  0.35910000  0.45260000  1.0
  H  H111  1  0.57430000  0.40500000  0.28000000  1.0
  H  H112  1  0.62090000  0.93460000  0.77700000  1.0
  H  H113  1  0.63790000  0.97720000  0.61000000  1.0
  H  H114  1  0.62640000  0.76210000  0.37830000  1.0
  H  H115  1  0.64670000  0.80500000  0.21910000  1.0
  H  H116  1  0.88470000  0.77120000  0.11240000  1.0
  H  H117  1  0.86650000  0.81470000  0.27540000  1.0
  H  H118  1  0.88860000  0.93530000  0.73550000  1.0
  H  H119  1  0.87030000  0.97820000  0.89850000  1.0
  H  H120  1  0.56210000  0.85920000  0.47550000  1.0
  H  H121  1  0.58100000  0.90480000  0.29720000  1.0
  H  H122  1  0.68150000  0.83560000  0.69950000  1.0
  H  H123  1  0.70090000  0.88190000  0.52470000  1.0
  H  H124  1  0.82700000  0.84170000  0.78970000  1.0
  H  H125  1  0.80510000  0.88800000  0.96170000  1.0
  H  H126  1  0.94750000  0.85910000  0.04740000  1.0
  H  H127  1  0.92570000  0.90500000  0.22000000  1.0
  H  H128  1  0.12090000  0.43460000  0.77700000  1.0
  H  H129  1  0.13790000  0.47720000  0.61000000  1.0
  H  H130  1  0.12640000  0.26210000  0.37830000  1.0
  H  H131  1  0.14670000  0.30500000  0.21910000  1.0
  H  H132  1  0.38470000  0.27120000  0.11240000  1.0
  H  H133  1  0.36650000  0.31470000  0.27540000  1.0
  H  H134  1  0.38860000  0.43530000  0.73550000  1.0
  H  H135  1  0.37030000  0.47820000  0.89850000  1.0
  H  H136  1  0.06210000  0.35920000  0.47550000  1.0
  H  H137  1  0.08100000  0.40480000  0.29720000  1.0
  H  H138  1  0.18150000  0.33560000  0.69950000  1.0
  H  H139  1  0.20090000  0.38190000  0.52470000  1.0
  H  H140  1  0.32700000  0.34170000  0.78970000  1.0
  H  H141  1  0.30510000  0.38800000  0.96170000  1.0
  H  H142  1  0.44750000  0.35910000  0.04740000  1.0
  H  H143  1  0.42570000  0.40500000  0.22000000  1.0
  C  C144  1  0.59740000  0.11050000  0.96400000  1.0
  C  C145  1  0.66560000  0.14890000  0.03300000  1.0
  C  C146  1  0.84070000  0.14290000  0.45500000  1.0
  C  C147  1  0.91210000  0.10980000  0.55400000  1.0
  C  C148  1  0.09740000  0.61050000  0.96400000  1.0
  C  C149  1  0.16560000  0.64890000  0.03300000  1.0
  C  C150  1  0.34070000  0.64290000  0.45500000  1.0
  C  C151  1  0.41210000  0.60980000  0.55400000  1.0
  C  C152  1  0.40260000  0.11050000  0.53600000  1.0
  C  C153  1  0.33440000  0.14890000  0.46700000  1.0
  C  C154  1  0.15930000  0.14290000  0.04500000  1.0
  C  C155  1  0.08790000  0.10980000  0.94600000  1.0
  C  C156  1  0.90260000  0.61050000  0.53600000  1.0
  C  C157  1  0.83440000  0.64890000  0.46700000  1.0
  C  C158  1  0.65930000  0.64290000  0.04500000  1.0
  C  C159  1  0.58790000  0.60980000  0.94600000  1.0
  C  C160  1  0.40260000  0.88950000  0.03600000  1.0
  C  C161  1  0.33440000  0.85110000  0.96700000  1.0
  C  C162  1  0.15930000  0.85710000  0.54500000  1.0
  C  C163  1  0.08790000  0.89020000  0.44600000  1.0
  C  C164  1  0.90260000  0.38950000  0.03600000  1.0
  C  C165  1  0.83440000  0.35110000  0.96700000  1.0
  C  C166  1  0.65930000  0.35710000  0.54500000  1.0
  C  C167  1  0.58790000  0.39020000  0.44600000  1.0
  C  C168  1  0.59740000  0.88950000  0.46400000  1.0
  C  C169  1  0.66560000  0.85110000  0.53300000  1.0
  C  C170  1  0.84070000  0.85710000  0.95500000  1.0
  C  C171  1  0.91210000  0.89020000  0.05400000  1.0
  C  C172  1  0.09740000  0.38950000  0.46400000  1.0
  C  C173  1  0.16560000  0.35110000  0.53300000  1.0
  C  C174  1  0.34070000  0.35710000  0.95500000  1.0
  C  C175  1  0.41210000  0.39020000  0.05400000  1.0
  N  N176  1  0.60600000  0.05190000  0.12200000  1.0
  N  N177  1  0.65900000  0.20850000  0.87400000  1.0
  N  N178  1  0.85220000  0.20000000  0.62100000  1.0
  N  N179  1  0.90300000  0.05040000  0.39000000  1.0
  N  N180  1  0.10600000  0.55190000  0.12200000  1.0
  N  N181  1  0.15900000  0.70850000  0.87400000  1.0
  N  N182  1  0.35220000  0.70000000  0.62100000  1.0
  N  N183  1  0.40300000  0.55040000  0.39000000  1.0
  N  N184  1  0.39400000  0.05190000  0.37800000  1.0
  N  N185  1  0.34100000  0.20850000  0.62600000  1.0
  N  N186  1  0.14780000  0.20000000  0.87900000  1.0
  N  N187  1  0.09700000  0.05040000  0.11000000  1.0
  N  N188  1  0.89400000  0.55190000  0.37800000  1.0
  N  N189  1  0.84100000  0.70850000  0.62600000  1.0
  N  N190  1  0.64780000  0.70000000  0.87900000  1.0
  N  N191  1  0.59700000  0.55040000  0.11000000  1.0
  N  N192  1  0.39400000  0.94810000  0.87800000  1.0
  N  N193  1  0.34100000  0.79150000  0.12600000  1.0
  N  N194  1  0.14780000  0.80000000  0.37900000  1.0
  N  N195  1  0.09700000  0.94960000  0.61000000  1.0
  N  N196  1  0.89400000  0.44810000  0.87800000  1.0
  N  N197  1  0.84100000  0.29150000  0.12600000  1.0
  N  N198  1  0.64780000  0.30000000  0.37900000  1.0
  N  N199  1  0.59700000  0.44960000  0.61000000  1.0
  N  N200  1  0.60600000  0.94810000  0.62200000  1.0
  N  N201  1  0.65900000  0.79150000  0.37400000  1.0
  N  N202  1  0.85220000  0.80000000  0.12100000  1.0
  N  N203  1  0.90300000  0.94960000  0.89000000  1.0
  N  N204  1  0.10600000  0.44810000  0.62200000  1.0
  N  N205  1  0.15900000  0.29150000  0.37400000  1.0
  N  N206  1  0.35220000  0.30000000  0.12100000  1.0
  N  N207  1  0.40300000  0.44960000  0.89000000  1.0
