# generated using pymatgen
data_Ho2H5C14(NO4)3
_symmetry_space_group_name_H-M   'P 1'
_cell_length_a   9.42990000
_cell_length_b   22.32720000
_cell_length_c   10.08740000
_cell_angle_alpha   90.00000000
_cell_angle_beta   102.81700000
_cell_angle_gamma   90.00000000
_symmetry_Int_Tables_number   1
_chemical_formula_structural   Ho2H5C14(NO4)3
_chemical_formula_sum   'Ho8 H20 C56 N12 O48'
_cell_volume   2070.91576404
_cell_formula_units_Z   4
loop_
 _symmetry_equiv_pos_site_id
 _symmetry_equiv_pos_as_xyz
  1  'x, y, z'
loop_
 _atom_site_type_symbol
 _atom_site_label
 _atom_site_symmetry_multiplicity
 _atom_site_fract_x
 _atom_site_fract_y
 _atom_site_fract_z
 _atom_site_occupancy
  Ho  Ho0  1  0.24816000  0.27630000  0.05136000  1.0
  Ho  Ho1  1  0.71783000  0.43411000  0.86187000  1.0
  Ho  Ho2  1  0.75184000  0.77630000  0.44864000  1.0
  Ho  Ho3  1  0.28217000  0.93411000  0.63813000  1.0
  Ho  Ho4  1  0.75184000  0.72370000  0.94864000  1.0
  Ho  Ho5  1  0.28217000  0.56589000  0.13813000  1.0
  Ho  Ho6  1  0.24816000  0.22370000  0.55136000  1.0
  Ho  Ho7  1  0.71783000  0.06589000  0.36187000  1.0
  H  H8  1  0.51086000  0.42573000  0.32514000  1.0
  H  H9  1  0.72622000  0.49687000  0.32037000  1.0
  H  H10  1  0.89377000  0.57708000  0.35483000  1.0
  H  H11  1  0.97848000  0.61259000  0.57395000  1.0
  H  H12  1  0.90938000  0.56741000  0.75116000  1.0
  H  H13  1  0.48914000  0.92573000  0.17486000  1.0
  H  H14  1  0.27378000  0.99687000  0.17963000  1.0
  H  H15  1  0.10623000  0.07708000  0.14517000  1.0
  H  H16  1  0.02152000  0.11259000  0.92605000  1.0
  H  H17  1  0.09062000  0.06741000  0.74884000  1.0
  H  H18  1  0.48914000  0.57427000  0.67486000  1.0
  H  H19  1  0.27378000  0.50313000  0.67963000  1.0
  H  H20  1  0.10623000  0.42292000  0.64517000  1.0
  H  H21  1  0.02152000  0.38741000  0.42605000  1.0
  H  H22  1  0.09062000  0.43259000  0.24884000  1.0
  H  H23  1  0.51086000  0.07427000  0.82514000  1.0
  H  H24  1  0.72622000  0.00313000  0.82037000  1.0
  H  H25  1  0.89377000  0.92292000  0.85483000  1.0
  H  H26  1  0.97848000  0.88741000  0.07395000  1.0
  H  H27  1  0.90938000  0.93259000  0.25116000  1.0
  C  C28  1  0.45480000  0.36851000  0.45230000  1.0
  C  C29  1  0.49810000  0.37054000  0.59280000  1.0
  C  C30  1  0.61900000  0.43976000  0.51480000  1.0
  C  C31  1  0.72210000  0.48906000  0.51970000  1.0
  C  C32  1  0.76320000  0.51220000  0.40680000  1.0
  C  C33  1  0.86310000  0.55980000  0.42760000  1.0
  C  C34  1  0.91440000  0.58040000  0.55790000  1.0
  C  C35  1  0.87080000  0.55340000  0.66380000  1.0
  C  C36  1  0.35700000  0.32910000  0.35370000  1.0
  C  C37  1  0.46310000  0.33827000  0.70920000  1.0
  C  C38  1  0.52030000  0.47913000  0.06200000  1.0
  C  C39  1  0.04420000  0.47967000  0.96200000  1.0
  C  C40  1  0.95230000  0.34887000  0.03040000  1.0
  C  C41  1  0.93420000  0.32279000  0.88550000  1.0
  C  C42  1  0.54520000  0.86851000  0.04770000  1.0
  C  C43  1  0.50190000  0.87054000  0.90720000  1.0
  C  C44  1  0.38100000  0.93976000  0.98520000  1.0
  C  C45  1  0.27790000  0.98906000  0.98030000  1.0
  C  C46  1  0.23680000  0.01220000  0.09320000  1.0
  C  C47  1  0.13690000  0.05980000  0.07240000  1.0
  C  C48  1  0.08560000  0.08040000  0.94210000  1.0
  C  C49  1  0.12920000  0.05340000  0.83620000  1.0
  C  C50  1  0.64300000  0.82910000  0.14630000  1.0
  C  C51  1  0.53690000  0.83827000  0.79080000  1.0
  C  C52  1  0.47970000  0.97913000  0.43800000  1.0
  C  C53  1  0.95580000  0.97967000  0.53800000  1.0
  C  C54  1  0.04770000  0.84887000  0.46960000  1.0
  C  C55  1  0.06580000  0.82279000  0.61450000  1.0
  C  C56  1  0.54520000  0.63149000  0.54770000  1.0
  C  C57  1  0.50190000  0.62946000  0.40720000  1.0
  C  C58  1  0.38100000  0.56024000  0.48520000  1.0
  C  C59  1  0.27790000  0.51094000  0.48030000  1.0
  C  C60  1  0.23680000  0.48780000  0.59320000  1.0
  C  C61  1  0.13690000  0.44020000  0.57240000  1.0
  C  C62  1  0.08560000  0.41960000  0.44210000  1.0
  C  C63  1  0.12920000  0.44660000  0.33620000  1.0
  C  C64  1  0.64300000  0.67090000  0.64630000  1.0
  C  C65  1  0.53690000  0.66173000  0.29080000  1.0
  C  C66  1  0.47970000  0.52087000  0.93800000  1.0
  C  C67  1  0.95580000  0.52033000  0.03800000  1.0
  C  C68  1  0.04770000  0.65113000  0.96960000  1.0
  C  C69  1  0.06580000  0.67721000  0.11450000  1.0
  C  C70  1  0.45480000  0.13149000  0.95230000  1.0
  C  C71  1  0.49810000  0.12946000  0.09280000  1.0
  C  C72  1  0.61900000  0.06024000  0.01480000  1.0
  C  C73  1  0.72210000  0.01094000  0.01970000  1.0
  C  C74  1  0.76320000  0.98780000  0.90680000  1.0
  C  C75  1  0.86310000  0.94020000  0.92760000  1.0
  C  C76  1  0.91440000  0.91960000  0.05790000  1.0
  C  C77  1  0.87080000  0.94660000  0.16380000  1.0
  C  C78  1  0.35700000  0.17090000  0.85370000  1.0
  C  C79  1  0.46310000  0.16173000  0.20920000  1.0
  C  C80  1  0.52030000  0.02087000  0.56200000  1.0
  C  C81  1  0.04420000  0.02033000  0.46200000  1.0
  C  C82  1  0.95230000  0.15113000  0.53040000  1.0
  C  C83  1  0.93420000  0.17721000  0.38550000  1.0
  N  N84  1  0.59940000  0.41501000  0.62880000  1.0
  N  N85  1  0.53300000  0.41311000  0.40680000  1.0
  N  N86  1  0.77600000  0.50796000  0.64930000  1.0
  N  N87  1  0.40060000  0.91501000  0.87120000  1.0
  N  N88  1  0.46700000  0.91311000  0.09320000  1.0
  N  N89  1  0.22400000  0.00796000  0.85070000  1.0
  N  N90  1  0.40060000  0.58499000  0.37120000  1.0
  N  N91  1  0.46700000  0.58689000  0.59320000  1.0
  N  N92  1  0.22400000  0.49204000  0.35070000  1.0
  N  N93  1  0.59940000  0.08499000  0.12880000  1.0
  N  N94  1  0.53300000  0.08689000  0.90680000  1.0
  N  N95  1  0.77600000  0.99204000  0.14930000  1.0
  O  O96  1  0.06680000  0.33687000  0.11300000  1.0
  O  O97  1  0.03030000  0.28609000  0.86980000  1.0
  O  O98  1  0.82760000  0.34113000  0.79750000  1.0
  O  O99  1  0.84980000  0.38077000  0.05100000  1.0
  O  O100  1  0.52340000  0.36042000  0.82460000  1.0
  O  O101  1  0.37990000  0.29485000  0.69640000  1.0
  O  O102  1  0.60170000  0.43635000  0.05260000  1.0
  O  O103  1  0.27400000  0.29305000  0.39540000  1.0
  O  O104  1  0.36590000  0.33549000  0.23280000  1.0
  O  O105  1  0.46820000  0.49163000  0.16320000  1.0
  O  O106  1  0.97480000  0.44747000  0.87040000  1.0
  O  O107  1  0.18020000  0.48200000  0.00160000  1.0
  O  O108  1  0.93320000  0.83687000  0.38700000  1.0
  O  O109  1  0.96970000  0.78609000  0.63020000  1.0
  O  O110  1  0.17240000  0.84113000  0.70250000  1.0
  O  O111  1  0.15020000  0.88077000  0.44900000  1.0
  O  O112  1  0.47660000  0.86042000  0.67540000  1.0
  O  O113  1  0.62010000  0.79485000  0.80360000  1.0
  O  O114  1  0.39830000  0.93635000  0.44740000  1.0
  O  O115  1  0.72600000  0.79305000  0.10460000  1.0
  O  O116  1  0.63410000  0.83549000  0.26720000  1.0
  O  O117  1  0.53180000  0.99163000  0.33680000  1.0
  O  O118  1  0.02520000  0.94747000  0.62960000  1.0
  O  O119  1  0.81980000  0.98200000  0.49840000  1.0
  O  O120  1  0.93320000  0.66313000  0.88700000  1.0
  O  O121  1  0.96970000  0.71391000  0.13020000  1.0
  O  O122  1  0.17240000  0.65887000  0.20250000  1.0
  O  O123  1  0.15020000  0.61923000  0.94900000  1.0
  O  O124  1  0.47660000  0.63958000  0.17540000  1.0
  O  O125  1  0.62010000  0.70515000  0.30360000  1.0
  O  O126  1  0.39830000  0.56365000  0.94740000  1.0
  O  O127  1  0.72600000  0.70695000  0.60460000  1.0
  O  O128  1  0.63410000  0.66451000  0.76720000  1.0
  O  O129  1  0.53180000  0.50837000  0.83680000  1.0
  O  O130  1  0.02520000  0.55253000  0.12960000  1.0
  O  O131  1  0.81980000  0.51800000  0.99840000  1.0
  O  O132  1  0.06680000  0.16313000  0.61300000  1.0
  O  O133  1  0.03030000  0.21391000  0.36980000  1.0
  O  O134  1  0.82760000  0.15887000  0.29750000  1.0
  O  O135  1  0.84980000  0.11923000  0.55100000  1.0
  O  O136  1  0.52340000  0.13958000  0.32460000  1.0
  O  O137  1  0.37990000  0.20515000  0.19640000  1.0
  O  O138  1  0.60170000  0.06365000  0.55260000  1.0
  O  O139  1  0.27400000  0.20695000  0.89540000  1.0
  O  O140  1  0.36590000  0.16451000  0.73280000  1.0
  O  O141  1  0.46820000  0.00837000  0.66320000  1.0
  O  O142  1  0.97480000  0.05253000  0.37040000  1.0
  O  O143  1  0.18020000  0.01800000  0.50160000  1.0
