# generated using pymatgen
data_Gd3P4H8(CO3)8
_symmetry_space_group_name_H-M   'P 1'
_cell_length_a   11.07570000
_cell_length_b   13.04330000
_cell_length_c   25.70140000
_cell_angle_alpha   90.00000000
_cell_angle_beta   90.00000000
_cell_angle_gamma   90.00000000
_symmetry_Int_Tables_number   1
_chemical_formula_structural   Gd3P4H8(CO3)8
_chemical_formula_sum   'Gd12 P16 H32 C32 O96'
_cell_volume   3712.91876887
_cell_formula_units_Z   4
loop_
 _symmetry_equiv_pos_site_id
 _symmetry_equiv_pos_as_xyz
  1  'x, y, z'
loop_
 _atom_site_type_symbol
 _atom_site_label
 _atom_site_symmetry_multiplicity
 _atom_site_fract_x
 _atom_site_fract_y
 _atom_site_fract_z
 _atom_site_occupancy
  Gd  Gd0  1  0.97942000  0.65703000  0.21878000  1.0
  Gd  Gd1  1  0.47942000  0.84297000  0.28122000  1.0
  Gd  Gd2  1  0.52058000  0.65703000  0.78122000  1.0
  Gd  Gd3  1  0.02058000  0.84297000  0.71878000  1.0
  Gd  Gd4  1  0.02058000  0.34297000  0.78122000  1.0
  Gd  Gd5  1  0.52058000  0.15703000  0.71878000  1.0
  Gd  Gd6  1  0.47942000  0.34297000  0.21878000  1.0
  Gd  Gd7  1  0.97942000  0.15703000  0.28122000  1.0
  Gd  Gd8  1  0.25000000  0.49213000  0.00000000  1.0
  Gd  Gd9  1  0.75000000  0.00787000  0.50000000  1.0
  Gd  Gd10  1  0.75000000  0.50787000  0.00000000  1.0
  Gd  Gd11  1  0.25000000  0.99213000  0.50000000  1.0
  P  P12  1  0.15275000  0.81144000  0.30396000  1.0
  P  P13  1  0.31099000  0.70174000  0.08165000  1.0
  P  P14  1  0.65275000  0.68856000  0.19604000  1.0
  P  P15  1  0.81099000  0.79826000  0.41835000  1.0
  P  P16  1  0.34725000  0.81144000  0.69604000  1.0
  P  P17  1  0.18901000  0.70174000  0.91835000  1.0
  P  P18  1  0.84725000  0.68856000  0.80396000  1.0
  P  P19  1  0.68901000  0.79826000  0.58165000  1.0
  P  P20  1  0.84725000  0.18856000  0.69604000  1.0
  P  P21  1  0.68901000  0.29826000  0.91835000  1.0
  P  P22  1  0.34725000  0.31144000  0.80396000  1.0
  P  P23  1  0.18901000  0.20174000  0.58165000  1.0
  P  P24  1  0.65275000  0.18856000  0.30396000  1.0
  P  P25  1  0.81099000  0.29826000  0.08165000  1.0
  P  P26  1  0.15275000  0.31144000  0.19604000  1.0
  P  P27  1  0.31099000  0.20174000  0.41835000  1.0
  H  H28  1  0.10060000  0.89060000  0.22460000  1.0
  H  H29  1  0.19520000  0.00840000  0.27490000  1.0
  H  H30  1  0.26260000  0.57370000  0.14150000  1.0
  H  H31  1  0.24800000  0.68590000  0.19230000  1.0
  H  H32  1  0.60060000  0.60940000  0.27540000  1.0
  H  H33  1  0.69520000  0.49160000  0.22510000  1.0
  H  H34  1  0.76260000  0.92630000  0.35850000  1.0
  H  H35  1  0.74800000  0.81410000  0.30770000  1.0
  H  H36  1  0.39940000  0.89060000  0.77540000  1.0
  H  H37  1  0.30480000  0.00840000  0.72510000  1.0
  H  H38  1  0.23740000  0.57370000  0.85850000  1.0
  H  H39  1  0.25200000  0.68590000  0.80770000  1.0
  H  H40  1  0.89940000  0.60940000  0.72460000  1.0
  H  H41  1  0.80480000  0.49160000  0.77490000  1.0
  H  H42  1  0.73740000  0.92630000  0.64150000  1.0
  H  H43  1  0.75200000  0.81410000  0.69230000  1.0
  H  H44  1  0.89940000  0.10940000  0.77540000  1.0
  H  H45  1  0.80480000  0.99160000  0.72510000  1.0
  H  H46  1  0.73740000  0.42630000  0.85850000  1.0
  H  H47  1  0.75200000  0.31410000  0.80770000  1.0
  H  H48  1  0.39940000  0.39060000  0.72460000  1.0
  H  H49  1  0.30480000  0.50840000  0.77490000  1.0
  H  H50  1  0.23740000  0.07370000  0.64150000  1.0
  H  H51  1  0.25200000  0.18590000  0.69230000  1.0
  H  H52  1  0.60060000  0.10940000  0.22460000  1.0
  H  H53  1  0.69520000  0.99160000  0.27490000  1.0
  H  H54  1  0.76260000  0.42630000  0.14150000  1.0
  H  H55  1  0.74800000  0.31410000  0.19230000  1.0
  H  H56  1  0.10060000  0.39060000  0.27540000  1.0
  H  H57  1  0.19520000  0.50840000  0.22510000  1.0
  H  H58  1  0.26260000  0.07370000  0.35850000  1.0
  H  H59  1  0.24800000  0.18590000  0.30770000  1.0
  C  C60  1  0.08180000  0.90730000  0.26170000  1.0
  C  C61  1  0.94510000  0.90170000  0.26989000  1.0
  C  C62  1  0.21580000  0.63480000  0.12945000  1.0
  C  C63  1  0.09890000  0.59410000  0.10480000  1.0
  C  C64  1  0.58180000  0.59270000  0.23830000  1.0
  C  C65  1  0.44510000  0.59830000  0.23011000  1.0
  C  C66  1  0.71580000  0.86520000  0.37055000  1.0
  C  C67  1  0.59890000  0.90590000  0.39520000  1.0
  C  C68  1  0.41820000  0.90730000  0.73830000  1.0
  C  C69  1  0.55490000  0.90170000  0.73011000  1.0
  C  C70  1  0.28420000  0.63480000  0.87055000  1.0
  C  C71  1  0.40110000  0.59410000  0.89520000  1.0
  C  C72  1  0.91820000  0.59270000  0.76170000  1.0
  C  C73  1  0.05490000  0.59830000  0.76989000  1.0
  C  C74  1  0.78420000  0.86520000  0.62945000  1.0
  C  C75  1  0.90110000  0.90590000  0.60480000  1.0
  C  C76  1  0.91820000  0.09270000  0.73830000  1.0
  C  C77  1  0.05490000  0.09830000  0.73011000  1.0
  C  C78  1  0.78420000  0.36520000  0.87055000  1.0
  C  C79  1  0.90110000  0.40590000  0.89520000  1.0
  C  C80  1  0.41820000  0.40730000  0.76170000  1.0
  C  C81  1  0.55490000  0.40170000  0.76989000  1.0
  C  C82  1  0.28420000  0.13480000  0.62945000  1.0
  C  C83  1  0.40110000  0.09410000  0.60480000  1.0
  C  C84  1  0.58180000  0.09270000  0.26170000  1.0
  C  C85  1  0.44510000  0.09830000  0.26989000  1.0
  C  C86  1  0.71580000  0.36520000  0.12945000  1.0
  C  C87  1  0.59890000  0.40590000  0.10480000  1.0
  C  C88  1  0.08180000  0.40730000  0.23830000  1.0
  C  C89  1  0.94510000  0.40170000  0.23011000  1.0
  C  C90  1  0.21580000  0.13480000  0.37055000  1.0
  C  C91  1  0.09890000  0.09410000  0.39520000  1.0
  O  O92  1  0.12150000  0.70890000  0.28085000  1.0
  O  O93  1  0.09870000  0.82760000  0.35946000  1.0
  O  O94  1  0.28330000  0.83780000  0.30722000  1.0
  O  O95  1  0.12210000  0.00860000  0.27274000  1.0
  O  O96  1  0.89730000  0.81470000  0.26448000  1.0
  O  O97  1  0.88930000  0.98270000  0.28109000  1.0
  O  O98  1  0.35810000  0.61780000  0.04621000  1.0
  O  O99  1  0.23440000  0.77950000  0.05048000  1.0
  O  O100  1  0.40800000  0.75780000  0.11241000  1.0
  O  O101  1  0.18550000  0.69270000  0.17512000  1.0
  O  O102  1  0.10440000  0.55770000  0.06039000  1.0
  O  O103  1  0.00350000  0.60110000  0.13156000  1.0
  O  O104  1  0.62150000  0.79110000  0.21915000  1.0
  O  O105  1  0.59870000  0.67240000  0.14054000  1.0
  O  O106  1  0.78330000  0.66220000  0.19278000  1.0
  O  O107  1  0.62210000  0.49140000  0.22726000  1.0
  O  O108  1  0.39730000  0.68530000  0.23552000  1.0
  O  O109  1  0.38930000  0.51730000  0.21891000  1.0
  O  O110  1  0.85810000  0.88220000  0.45379000  1.0
  O  O111  1  0.73440000  0.72050000  0.44952000  1.0
  O  O112  1  0.90800000  0.74220000  0.38759000  1.0
  O  O113  1  0.68550000  0.80730000  0.32488000  1.0
  O  O114  1  0.60440000  0.94230000  0.43961000  1.0
  O  O115  1  0.50350000  0.89890000  0.36844000  1.0
  O  O116  1  0.37850000  0.70890000  0.71915000  1.0
  O  O117  1  0.40130000  0.82760000  0.64054000  1.0
  O  O118  1  0.21670000  0.83780000  0.69278000  1.0
  O  O119  1  0.37790000  0.00860000  0.72726000  1.0
  O  O120  1  0.60270000  0.81470000  0.73552000  1.0
  O  O121  1  0.61070000  0.98270000  0.71891000  1.0
  O  O122  1  0.14190000  0.61780000  0.95379000  1.0
  O  O123  1  0.26560000  0.77950000  0.94952000  1.0
  O  O124  1  0.09200000  0.75780000  0.88759000  1.0
  O  O125  1  0.31450000  0.69270000  0.82488000  1.0
  O  O126  1  0.39560000  0.55770000  0.93961000  1.0
  O  O127  1  0.49650000  0.60110000  0.86844000  1.0
  O  O128  1  0.87850000  0.79110000  0.78085000  1.0
  O  O129  1  0.90130000  0.67240000  0.85946000  1.0
  O  O130  1  0.71670000  0.66220000  0.80722000  1.0
  O  O131  1  0.87790000  0.49140000  0.77274000  1.0
  O  O132  1  0.10270000  0.68530000  0.76448000  1.0
  O  O133  1  0.11070000  0.51730000  0.78109000  1.0
  O  O134  1  0.64190000  0.88220000  0.54621000  1.0
  O  O135  1  0.76560000  0.72050000  0.55048000  1.0
  O  O136  1  0.59200000  0.74220000  0.61241000  1.0
  O  O137  1  0.81450000  0.80730000  0.67512000  1.0
  O  O138  1  0.89560000  0.94230000  0.56039000  1.0
  O  O139  1  0.99650000  0.89890000  0.63156000  1.0
  O  O140  1  0.87850000  0.29110000  0.71915000  1.0
  O  O141  1  0.90130000  0.17240000  0.64054000  1.0
  O  O142  1  0.71670000  0.16220000  0.69278000  1.0
  O  O143  1  0.87790000  0.99140000  0.72726000  1.0
  O  O144  1  0.10270000  0.18530000  0.73552000  1.0
  O  O145  1  0.11070000  0.01730000  0.71891000  1.0
  O  O146  1  0.64190000  0.38220000  0.95379000  1.0
  O  O147  1  0.76560000  0.22050000  0.94952000  1.0
  O  O148  1  0.59200000  0.24220000  0.88759000  1.0
  O  O149  1  0.81450000  0.30730000  0.82488000  1.0
  O  O150  1  0.89560000  0.44230000  0.93961000  1.0
  O  O151  1  0.99650000  0.39890000  0.86844000  1.0
  O  O152  1  0.37850000  0.20890000  0.78085000  1.0
  O  O153  1  0.40130000  0.32760000  0.85946000  1.0
  O  O154  1  0.21670000  0.33780000  0.80722000  1.0
  O  O155  1  0.37790000  0.50860000  0.77274000  1.0
  O  O156  1  0.60270000  0.31470000  0.76448000  1.0
  O  O157  1  0.61070000  0.48270000  0.78109000  1.0
  O  O158  1  0.14190000  0.11780000  0.54621000  1.0
  O  O159  1  0.26560000  0.27950000  0.55048000  1.0
  O  O160  1  0.09200000  0.25780000  0.61241000  1.0
  O  O161  1  0.31450000  0.19270000  0.67512000  1.0
  O  O162  1  0.39560000  0.05770000  0.56039000  1.0
  O  O163  1  0.49650000  0.10110000  0.63156000  1.0
  O  O164  1  0.62150000  0.29110000  0.28085000  1.0
  O  O165  1  0.59870000  0.17240000  0.35946000  1.0
  O  O166  1  0.78330000  0.16220000  0.30722000  1.0
  O  O167  1  0.62210000  0.99140000  0.27274000  1.0
  O  O168  1  0.39730000  0.18530000  0.26448000  1.0
  O  O169  1  0.38930000  0.01730000  0.28109000  1.0
  O  O170  1  0.85810000  0.38220000  0.04621000  1.0
  O  O171  1  0.73440000  0.22050000  0.05048000  1.0
  O  O172  1  0.90800000  0.24220000  0.11241000  1.0
  O  O173  1  0.68550000  0.30730000  0.17512000  1.0
  O  O174  1  0.60440000  0.44230000  0.06039000  1.0
  O  O175  1  0.50350000  0.39890000  0.13156000  1.0
  O  O176  1  0.12150000  0.20890000  0.21915000  1.0
  O  O177  1  0.09870000  0.32760000  0.14054000  1.0
  O  O178  1  0.28330000  0.33780000  0.19278000  1.0
  O  O179  1  0.12210000  0.50860000  0.22726000  1.0
  O  O180  1  0.89730000  0.31470000  0.23552000  1.0
  O  O181  1  0.88930000  0.48270000  0.21891000  1.0
  O  O182  1  0.35810000  0.11780000  0.45379000  1.0
  O  O183  1  0.23440000  0.27950000  0.44952000  1.0
  O  O184  1  0.40800000  0.25780000  0.38759000  1.0
  O  O185  1  0.18550000  0.19270000  0.32488000  1.0
  O  O186  1  0.10440000  0.05770000  0.43961000  1.0
  O  O187  1  0.00350000  0.10110000  0.36844000  1.0
