# generated using pymatgen
data_V2P2H7C3O7
_symmetry_space_group_name_H-M   'P 1'
_cell_length_a   15.00300000
_cell_length_b   10.12600000
_cell_length_c   18.60400000
_cell_angle_alpha   90.00000000
_cell_angle_beta   101.00000000
_cell_angle_gamma   90.00000000
_symmetry_Int_Tables_number   1
_chemical_formula_structural   V2P2H7C3O7
_chemical_formula_sum   'V16 P16 H56 C24 O56'
_cell_volume   2774.39913011
_cell_formula_units_Z   8
loop_
 _symmetry_equiv_pos_site_id
 _symmetry_equiv_pos_as_xyz
  1  'x, y, z'
loop_
 _atom_site_type_symbol
 _atom_site_label
 _atom_site_symmetry_multiplicity
 _atom_site_fract_x
 _atom_site_fract_y
 _atom_site_fract_z
 _atom_site_occupancy
  V  V0  1  0.15898000  0.38593000  0.08585000  1.0
  V  V1  1  0.24682000  0.45413000  0.28135000  1.0
  V  V2  1  0.65898000  0.88593000  0.08585000  1.0
  V  V3  1  0.74682000  0.95413000  0.28135000  1.0
  V  V4  1  0.84102000  0.38593000  0.41415000  1.0
  V  V5  1  0.75318000  0.45413000  0.21865000  1.0
  V  V6  1  0.34102000  0.88593000  0.41415000  1.0
  V  V7  1  0.25318000  0.95413000  0.21865000  1.0
  V  V8  1  0.84102000  0.61407000  0.91415000  1.0
  V  V9  1  0.75318000  0.54587000  0.71865000  1.0
  V  V10  1  0.34102000  0.11407000  0.91415000  1.0
  V  V11  1  0.25318000  0.04587000  0.71865000  1.0
  V  V12  1  0.15898000  0.61407000  0.58585000  1.0
  V  V13  1  0.24682000  0.54587000  0.78135000  1.0
  V  V14  1  0.65898000  0.11407000  0.58585000  1.0
  V  V15  1  0.74682000  0.04587000  0.78135000  1.0
  P  P16  1  0.78574000  0.62254000  0.07702000  1.0
  P  P17  1  0.16260000  0.66987000  0.16686000  1.0
  P  P18  1  0.28574000  0.12254000  0.07702000  1.0
  P  P19  1  0.66260000  0.16987000  0.16686000  1.0
  P  P20  1  0.21426000  0.62254000  0.42298000  1.0
  P  P21  1  0.83740000  0.66987000  0.33314000  1.0
  P  P22  1  0.71426000  0.12254000  0.42298000  1.0
  P  P23  1  0.33740000  0.16987000  0.33314000  1.0
  P  P24  1  0.21426000  0.37746000  0.92298000  1.0
  P  P25  1  0.83740000  0.33013000  0.83314000  1.0
  P  P26  1  0.71426000  0.87746000  0.92298000  1.0
  P  P27  1  0.33740000  0.83013000  0.83314000  1.0
  P  P28  1  0.78574000  0.37746000  0.57702000  1.0
  P  P29  1  0.16260000  0.33013000  0.66686000  1.0
  P  P30  1  0.28574000  0.87746000  0.57702000  1.0
  P  P31  1  0.66260000  0.83013000  0.66686000  1.0
  H  H32  1  0.88670000  0.79180000  0.07400000  1.0
  H  H33  1  0.87340000  0.76850000  0.15450000  1.0
  H  H34  1  0.97860000  0.59570000  0.08490000  1.0
  H  H35  1  0.97270000  0.59120000  0.16820000  1.0
  H  H36  1  0.04410000  0.80040000  0.18490000  1.0
  H  H37  1  0.05160000  0.80210000  0.10220000  1.0
  H  H38  1  0.20800000  0.30400000  0.19800000  1.0
  H  H39  1  0.38670000  0.29180000  0.07400000  1.0
  H  H40  1  0.37340000  0.26850000  0.15450000  1.0
  H  H41  1  0.47860000  0.09570000  0.08490000  1.0
  H  H42  1  0.47270000  0.09120000  0.16820000  1.0
  H  H43  1  0.54410000  0.30040000  0.18490000  1.0
  H  H44  1  0.55160000  0.30210000  0.10220000  1.0
  H  H45  1  0.70800000  0.80400000  0.19800000  1.0
  H  H46  1  0.11330000  0.79180000  0.42600000  1.0
  H  H47  1  0.12660000  0.76850000  0.34550000  1.0
  H  H48  1  0.02140000  0.59570000  0.41510000  1.0
  H  H49  1  0.02730000  0.59120000  0.33180000  1.0
  H  H50  1  0.95590000  0.80040000  0.31510000  1.0
  H  H51  1  0.94840000  0.80210000  0.39780000  1.0
  H  H52  1  0.79200000  0.30400000  0.30200000  1.0
  H  H53  1  0.61330000  0.29180000  0.42600000  1.0
  H  H54  1  0.62660000  0.26850000  0.34550000  1.0
  H  H55  1  0.52140000  0.09570000  0.41510000  1.0
  H  H56  1  0.52730000  0.09120000  0.33180000  1.0
  H  H57  1  0.45590000  0.30040000  0.31510000  1.0
  H  H58  1  0.44840000  0.30210000  0.39780000  1.0
  H  H59  1  0.29200000  0.80400000  0.30200000  1.0
  H  H60  1  0.11330000  0.20820000  0.92600000  1.0
  H  H61  1  0.12660000  0.23150000  0.84550000  1.0
  H  H62  1  0.02140000  0.40430000  0.91510000  1.0
  H  H63  1  0.02730000  0.40880000  0.83180000  1.0
  H  H64  1  0.95590000  0.19960000  0.81510000  1.0
  H  H65  1  0.94840000  0.19790000  0.89780000  1.0
  H  H66  1  0.79200000  0.69600000  0.80200000  1.0
  H  H67  1  0.61330000  0.70820000  0.92600000  1.0
  H  H68  1  0.62660000  0.73150000  0.84550000  1.0
  H  H69  1  0.52140000  0.90430000  0.91510000  1.0
  H  H70  1  0.52730000  0.90880000  0.83180000  1.0
  H  H71  1  0.45590000  0.69960000  0.81510000  1.0
  H  H72  1  0.44840000  0.69790000  0.89780000  1.0
  H  H73  1  0.29200000  0.19600000  0.80200000  1.0
  H  H74  1  0.88670000  0.20820000  0.57400000  1.0
  H  H75  1  0.87340000  0.23150000  0.65450000  1.0
  H  H76  1  0.97860000  0.40430000  0.58490000  1.0
  H  H77  1  0.97270000  0.40880000  0.66820000  1.0
  H  H78  1  0.04410000  0.19960000  0.68490000  1.0
  H  H79  1  0.05160000  0.19790000  0.60220000  1.0
  H  H80  1  0.20800000  0.69600000  0.69800000  1.0
  H  H81  1  0.38670000  0.70820000  0.57400000  1.0
  H  H82  1  0.37340000  0.73150000  0.65450000  1.0
  H  H83  1  0.47860000  0.90430000  0.58490000  1.0
  H  H84  1  0.47270000  0.90880000  0.66820000  1.0
  H  H85  1  0.54410000  0.69960000  0.68490000  1.0
  H  H86  1  0.55160000  0.69790000  0.60220000  1.0
  H  H87  1  0.70800000  0.19600000  0.69800000  1.0
  C  C88  1  0.88260000  0.72430000  0.11020000  1.0
  C  C89  1  0.97240000  0.64950000  0.12680000  1.0
  C  C90  1  0.05270000  0.74500000  0.14430000  1.0
  C  C91  1  0.38260000  0.22430000  0.11020000  1.0
  C  C92  1  0.47240000  0.14950000  0.12680000  1.0
  C  C93  1  0.55270000  0.24500000  0.14430000  1.0
  C  C94  1  0.11740000  0.72430000  0.38980000  1.0
  C  C95  1  0.02760000  0.64950000  0.37320000  1.0
  C  C96  1  0.94730000  0.74500000  0.35570000  1.0
  C  C97  1  0.61740000  0.22430000  0.38980000  1.0
  C  C98  1  0.52760000  0.14950000  0.37320000  1.0
  C  C99  1  0.44730000  0.24500000  0.35570000  1.0
  C  C100  1  0.11740000  0.27570000  0.88980000  1.0
  C  C101  1  0.02760000  0.35050000  0.87320000  1.0
  C  C102  1  0.94730000  0.25500000  0.85570000  1.0
  C  C103  1  0.61740000  0.77570000  0.88980000  1.0
  C  C104  1  0.52760000  0.85050000  0.87320000  1.0
  C  C105  1  0.44730000  0.75500000  0.85570000  1.0
  C  C106  1  0.88260000  0.27570000  0.61020000  1.0
  C  C107  1  0.97240000  0.35050000  0.62680000  1.0
  C  C108  1  0.05270000  0.25500000  0.64430000  1.0
  C  C109  1  0.38260000  0.77570000  0.61020000  1.0
  C  C110  1  0.47240000  0.85050000  0.62680000  1.0
  C  C111  1  0.55270000  0.75500000  0.64430000  1.0
  O  O112  1  0.17600000  0.57590000  0.10549000  1.0
  O  O113  1  0.79210000  0.57180000  0.00090000  1.0
  O  O114  1  0.19920000  0.35770000  0.19110000  1.0
  O  O115  1  0.70000000  0.70180000  0.07700000  1.0
  O  O116  1  0.78730000  0.50050000  0.12562000  1.0
  O  O117  1  0.16660000  0.59880000  0.24010000  1.0
  O  O118  1  0.23420000  0.77820000  0.17240000  1.0
  O  O119  1  0.67600000  0.07590000  0.10549000  1.0
  O  O120  1  0.29210000  0.07180000  0.00090000  1.0
  O  O121  1  0.69920000  0.85770000  0.19110000  1.0
  O  O122  1  0.20000000  0.20180000  0.07700000  1.0
  O  O123  1  0.28730000  0.00050000  0.12562000  1.0
  O  O124  1  0.66666667  0.09880000  0.24010000  1.0
  O  O125  1  0.73420000  0.27820000  0.17240000  1.0
  O  O126  1  0.82400000  0.57590000  0.39451000  1.0
  O  O127  1  0.20790000  0.57180000  0.49910000  1.0
  O  O128  1  0.80080000  0.35770000  0.30890000  1.0
  O  O129  1  0.30000000  0.70180000  0.42300000  1.0
  O  O130  1  0.21270000  0.50050000  0.37438000  1.0
  O  O131  1  0.83340000  0.59880000  0.25990000  1.0
  O  O132  1  0.76580000  0.77820000  0.32760000  1.0
  O  O133  1  0.32400000  0.07590000  0.39451000  1.0
  O  O134  1  0.70790000  0.07180000  0.49910000  1.0
  O  O135  1  0.30080000  0.85770000  0.30890000  1.0
  O  O136  1  0.80000000  0.20180000  0.42300000  1.0
  O  O137  1  0.71270000  0.00050000  0.37438000  1.0
  O  O138  1  0.33340000  0.09880000  0.25990000  1.0
  O  O139  1  0.26580000  0.27820000  0.32760000  1.0
  O  O140  1  0.82400000  0.42410000  0.89451000  1.0
  O  O141  1  0.20790000  0.42820000  0.99910000  1.0
  O  O142  1  0.80080000  0.64230000  0.80890000  1.0
  O  O143  1  0.30000000  0.29820000  0.92300000  1.0
  O  O144  1  0.21270000  0.49950000  0.87438000  1.0
  O  O145  1  0.83340000  0.40120000  0.75990000  1.0
  O  O146  1  0.76580000  0.22180000  0.82760000  1.0
  O  O147  1  0.32400000  0.92410000  0.89451000  1.0
  O  O148  1  0.70790000  0.92820000  0.99910000  1.0
  O  O149  1  0.30080000  0.14230000  0.80890000  1.0
  O  O150  1  0.80000000  0.79820000  0.92300000  1.0
  O  O151  1  0.71270000  0.99950000  0.87438000  1.0
  O  O152  1  0.33340000  0.90120000  0.75990000  1.0
  O  O153  1  0.26580000  0.72180000  0.82760000  1.0
  O  O154  1  0.17600000  0.42410000  0.60549000  1.0
  O  O155  1  0.79210000  0.42820000  0.50090000  1.0
  O  O156  1  0.19920000  0.64230000  0.69110000  1.0
  O  O157  1  0.70000000  0.29820000  0.57700000  1.0
  O  O158  1  0.78730000  0.49950000  0.62562000  1.0
  O  O159  1  0.16660000  0.40120000  0.74010000  1.0
  O  O160  1  0.23420000  0.22180000  0.67240000  1.0
  O  O161  1  0.67600000  0.92410000  0.60549000  1.0
  O  O162  1  0.29210000  0.92820000  0.50090000  1.0
  O  O163  1  0.69920000  0.14230000  0.69110000  1.0
  O  O164  1  0.20000000  0.79820000  0.57700000  1.0
  O  O165  1  0.28730000  0.99950000  0.62562000  1.0
  O  O166  1  0.66666667  0.90120000  0.74010000  1.0
  O  O167  1  0.73420000  0.72180000  0.67240000  1.0
