# generated using pymatgen
data_Cr3Cd2H24C36N6O13
_symmetry_space_group_name_H-M   'P 1'
_cell_length_a   20.60800000
_cell_length_b   20.60800000
_cell_length_c   22.35000000
_cell_angle_alpha   90.00000000
_cell_angle_beta   90.00000000
_cell_angle_gamma   90.00000000
_symmetry_Int_Tables_number   1
_chemical_formula_structural   Cr3Cd2H24C36N6O13
_chemical_formula_sum   'Cr12 Cd8 H96 C144 N24 O52'
_cell_volume   9491.81399040
_cell_formula_units_Z   4
loop_
 _symmetry_equiv_pos_site_id
 _symmetry_equiv_pos_as_xyz
  1  'x, y, z'
loop_
 _atom_site_type_symbol
 _atom_site_label
 _atom_site_symmetry_multiplicity
 _atom_site_fract_x
 _atom_site_fract_y
 _atom_site_fract_z
 _atom_site_occupancy
  Cr  Cr0  1  0.42236000  0.01945000  0.31920000  1.0
  Cr  Cr1  1  0.57764000  0.98055000  0.31920000  1.0
  Cr  Cr2  1  0.01945000  0.57764000  0.68080000  1.0
  Cr  Cr3  1  0.98055000  0.42236000  0.68080000  1.0
  Cr  Cr4  1  0.07764000  0.51945000  0.18080000  1.0
  Cr  Cr5  1  0.92236000  0.48055000  0.18080000  1.0
  Cr  Cr6  1  0.48055000  0.07764000  0.81920000  1.0
  Cr  Cr7  1  0.51945000  0.92236000  0.81920000  1.0
  Cr  Cr8  1  0.50000000  0.00000000  0.44649000  1.0
  Cr  Cr9  1  0.00000000  0.50000000  0.55351000  1.0
  Cr  Cr10  1  0.00000000  0.50000000  0.05351000  1.0
  Cr  Cr11  1  0.50000000  0.00000000  0.94649000  1.0
  Cd  Cd12  1  0.71886000  0.20871000  0.11437000  1.0
  Cd  Cd13  1  0.28114000  0.79129000  0.11437000  1.0
  Cd  Cd14  1  0.20871000  0.28114000  0.88563000  1.0
  Cd  Cd15  1  0.79129000  0.71886000  0.88563000  1.0
  Cd  Cd16  1  0.78114000  0.70871000  0.38563000  1.0
  Cd  Cd17  1  0.21886000  0.29129000  0.38563000  1.0
  Cd  Cd18  1  0.29129000  0.78114000  0.61437000  1.0
  Cd  Cd19  1  0.70871000  0.21886000  0.61437000  1.0
  H  H20  1  0.63040000  0.12070000  0.19800000  1.0
  H  H21  1  0.57840000  0.27550000  0.10570000  1.0
  H  H22  1  0.47370000  0.26880000  0.13910000  1.0
  H  H23  1  0.44490000  0.18350000  0.20610000  1.0
  H  H24  1  0.35960000  0.88070000  0.51960000  1.0
  H  H25  1  0.27020000  0.88850000  0.35980000  1.0
  H  H26  1  0.32610000  0.18320000  0.37680000  1.0
  H  H27  1  0.46000000  0.19400000  0.51030000  1.0
  H  H28  1  0.18940000  0.81850000  0.39920000  1.0
  H  H29  1  0.40890000  0.29080000  0.54110000  1.0
  H  H30  1  0.20320000  0.77530000  0.49430000  1.0
  H  H31  1  0.32520000  0.33240000  0.48730000  1.0
  H  H32  1  0.36960000  0.87930000  0.19800000  1.0
  H  H33  1  0.42160000  0.72450000  0.10570000  1.0
  H  H34  1  0.52630000  0.73120000  0.13910000  1.0
  H  H35  1  0.55510000  0.81650000  0.20610000  1.0
  H  H36  1  0.64040000  0.11930000  0.51960000  1.0
  H  H37  1  0.72980000  0.11150000  0.35980000  1.0
  H  H38  1  0.67390000  0.81680000  0.37680000  1.0
  H  H39  1  0.54000000  0.80600000  0.51030000  1.0
  H  H40  1  0.81060000  0.18150000  0.39920000  1.0
  H  H41  1  0.59110000  0.70920000  0.54110000  1.0
  H  H42  1  0.79680000  0.22470000  0.49430000  1.0
  H  H43  1  0.67480000  0.66760000  0.48730000  1.0
  H  H44  1  0.12070000  0.36960000  0.80200000  1.0
  H  H45  1  0.27550000  0.42160000  0.89430000  1.0
  H  H46  1  0.26880000  0.52630000  0.86090000  1.0
  H  H47  1  0.18350000  0.55510000  0.79390000  1.0
  H  H48  1  0.88070000  0.64040000  0.48040000  1.0
  H  H49  1  0.88850000  0.72980000  0.64020000  1.0
  H  H50  1  0.18320000  0.67390000  0.62320000  1.0
  H  H51  1  0.19400000  0.54000000  0.48970000  1.0
  H  H52  1  0.81850000  0.81060000  0.60080000  1.0
  H  H53  1  0.29080000  0.59110000  0.45890000  1.0
  H  H54  1  0.77530000  0.79680000  0.50570000  1.0
  H  H55  1  0.33240000  0.67480000  0.51270000  1.0
  H  H56  1  0.87930000  0.63040000  0.80200000  1.0
  H  H57  1  0.72450000  0.57840000  0.89430000  1.0
  H  H58  1  0.73120000  0.47370000  0.86090000  1.0
  H  H59  1  0.81650000  0.44490000  0.79390000  1.0
  H  H60  1  0.11930000  0.35960000  0.48040000  1.0
  H  H61  1  0.11150000  0.27020000  0.64020000  1.0
  H  H62  1  0.81680000  0.32610000  0.62320000  1.0
  H  H63  1  0.80600000  0.46000000  0.48970000  1.0
  H  H64  1  0.18150000  0.18940000  0.60080000  1.0
  H  H65  1  0.70920000  0.40890000  0.45890000  1.0
  H  H66  1  0.22470000  0.20320000  0.50570000  1.0
  H  H67  1  0.66760000  0.32520000  0.51270000  1.0
  H  H68  1  0.86960000  0.62070000  0.30200000  1.0
  H  H69  1  0.92160000  0.77550000  0.39430000  1.0
  H  H70  1  0.02630000  0.76880000  0.36090000  1.0
  H  H71  1  0.05510000  0.68350000  0.29390000  1.0
  H  H72  1  0.14040000  0.38070000  0.98040000  1.0
  H  H73  1  0.22980000  0.38850000  0.14020000  1.0
  H  H74  1  0.17390000  0.68320000  0.12320000  1.0
  H  H75  1  0.04000000  0.69400000  0.98970000  1.0
  H  H76  1  0.31060000  0.31850000  0.10080000  1.0
  H  H77  1  0.09110000  0.79080000  0.95890000  1.0
  H  H78  1  0.29680000  0.27530000  0.00570000  1.0
  H  H79  1  0.17480000  0.83240000  0.01270000  1.0
  H  H80  1  0.13040000  0.37930000  0.30200000  1.0
  H  H81  1  0.07840000  0.22450000  0.39430000  1.0
  H  H82  1  0.97370000  0.23120000  0.36090000  1.0
  H  H83  1  0.94490000  0.31650000  0.29390000  1.0
  H  H84  1  0.85960000  0.61930000  0.98040000  1.0
  H  H85  1  0.77020000  0.61150000  0.14020000  1.0
  H  H86  1  0.82610000  0.31680000  0.12320000  1.0
  H  H87  1  0.96000000  0.30600000  0.98970000  1.0
  H  H88  1  0.68940000  0.68150000  0.10080000  1.0
  H  H89  1  0.90890000  0.20920000  0.95890000  1.0
  H  H90  1  0.70320000  0.72470000  0.00570000  1.0
  H  H91  1  0.82520000  0.16760000  0.01270000  1.0
  H  H92  1  0.37930000  0.86960000  0.69800000  1.0
  H  H93  1  0.22450000  0.92160000  0.60570000  1.0
  H  H94  1  0.23120000  0.02630000  0.63910000  1.0
  H  H95  1  0.31650000  0.05510000  0.70610000  1.0
  H  H96  1  0.61930000  0.14040000  0.01960000  1.0
  H  H97  1  0.61150000  0.22980000  0.85980000  1.0
  H  H98  1  0.31680000  0.17390000  0.87680000  1.0
  H  H99  1  0.30600000  0.04000000  0.01030000  1.0
  H  H100  1  0.68150000  0.31060000  0.89920000  1.0
  H  H101  1  0.20920000  0.09110000  0.04110000  1.0
  H  H102  1  0.72470000  0.29680000  0.99430000  1.0
  H  H103  1  0.16760000  0.17480000  0.98730000  1.0
  H  H104  1  0.62070000  0.13040000  0.69800000  1.0
  H  H105  1  0.77550000  0.07840000  0.60570000  1.0
  H  H106  1  0.76880000  0.97370000  0.63910000  1.0
  H  H107  1  0.68350000  0.94490000  0.70610000  1.0
  H  H108  1  0.38070000  0.85960000  0.01960000  1.0
  H  H109  1  0.38850000  0.77020000  0.85980000  1.0
  H  H110  1  0.68320000  0.82610000  0.87680000  1.0
  H  H111  1  0.69400000  0.96000000  0.01030000  1.0
  H  H112  1  0.31850000  0.68940000  0.89920000  1.0
  H  H113  1  0.79080000  0.90890000  0.04110000  1.0
  H  H114  1  0.27530000  0.70320000  0.99430000  1.0
  H  H115  1  0.83240000  0.82520000  0.98730000  1.0
  C  C116  1  0.59790000  0.15080000  0.18620000  1.0
  C  C117  1  0.56690000  0.24160000  0.13240000  1.0
  C  C118  1  0.53460000  0.14340000  0.20770000  1.0
  C  C119  1  0.50510000  0.23790000  0.15180000  1.0
  C  C120  1  0.52030000  0.08810000  0.24800000  1.0
  C  C121  1  0.48800000  0.18710000  0.19130000  1.0
  C  C122  1  0.37310000  0.93900000  0.41620000  1.0
  C  C123  1  0.42040000  0.11360000  0.42100000  1.0
  C  C124  1  0.32200000  0.89220000  0.43730000  1.0
  C  C125  1  0.39540000  0.17720000  0.44100000  1.0
  C  C126  1  0.32500000  0.86710000  0.49440000  1.0
  C  C127  1  0.27250000  0.87320000  0.39980000  1.0
  C  C128  1  0.34290000  0.20470000  0.41110000  1.0
  C  C129  1  0.42290000  0.21030000  0.49000000  1.0
  C  C130  1  0.22590000  0.83070000  0.42260000  1.0
  C  C131  1  0.39330000  0.26800000  0.50710000  1.0
  C  C132  1  0.23380000  0.80630000  0.48030000  1.0
  C  C133  1  0.34270000  0.29160000  0.47580000  1.0
  C  C134  1  0.40210000  0.84920000  0.18620000  1.0
  C  C135  1  0.43310000  0.75840000  0.13240000  1.0
  C  C136  1  0.46540000  0.85660000  0.20770000  1.0
  C  C137  1  0.49490000  0.76210000  0.15180000  1.0
  C  C138  1  0.47970000  0.91190000  0.24800000  1.0
  C  C139  1  0.51200000  0.81290000  0.19130000  1.0
  C  C140  1  0.62690000  0.06100000  0.41620000  1.0
  C  C141  1  0.57960000  0.88640000  0.42100000  1.0
  C  C142  1  0.67800000  0.10780000  0.43730000  1.0
  C  C143  1  0.60460000  0.82280000  0.44100000  1.0
  C  C144  1  0.67500000  0.13290000  0.49440000  1.0
  C  C145  1  0.72750000  0.12680000  0.39980000  1.0
  C  C146  1  0.65710000  0.79530000  0.41110000  1.0
  C  C147  1  0.57710000  0.78970000  0.49000000  1.0
  C  C148  1  0.77410000  0.16930000  0.42260000  1.0
  C  C149  1  0.60670000  0.73200000  0.50710000  1.0
  C  C150  1  0.76620000  0.19370000  0.48030000  1.0
  C  C151  1  0.65730000  0.70840000  0.47580000  1.0
  C  C152  1  0.15080000  0.40210000  0.81380000  1.0
  C  C153  1  0.24160000  0.43310000  0.86760000  1.0
  C  C154  1  0.14340000  0.46540000  0.79230000  1.0
  C  C155  1  0.23790000  0.49490000  0.84820000  1.0
  C  C156  1  0.08810000  0.47970000  0.75200000  1.0
  C  C157  1  0.18710000  0.51200000  0.80870000  1.0
  C  C158  1  0.93900000  0.62690000  0.58380000  1.0
  C  C159  1  0.11360000  0.57960000  0.57900000  1.0
  C  C160  1  0.89220000  0.67800000  0.56270000  1.0
  C  C161  1  0.17720000  0.60460000  0.55900000  1.0
  C  C162  1  0.86710000  0.67500000  0.50560000  1.0
  C  C163  1  0.87320000  0.72750000  0.60020000  1.0
  C  C164  1  0.20470000  0.65710000  0.58890000  1.0
  C  C165  1  0.21030000  0.57710000  0.51000000  1.0
  C  C166  1  0.83070000  0.77410000  0.57740000  1.0
  C  C167  1  0.26800000  0.60670000  0.49290000  1.0
  C  C168  1  0.80630000  0.76620000  0.51970000  1.0
  C  C169  1  0.29160000  0.65730000  0.52420000  1.0
  C  C170  1  0.84920000  0.59790000  0.81380000  1.0
  C  C171  1  0.75840000  0.56690000  0.86760000  1.0
  C  C172  1  0.85660000  0.53460000  0.79230000  1.0
  C  C173  1  0.76210000  0.50510000  0.84820000  1.0
  C  C174  1  0.91190000  0.52030000  0.75200000  1.0
  C  C175  1  0.81290000  0.48800000  0.80870000  1.0
  C  C176  1  0.06100000  0.37310000  0.58380000  1.0
  C  C177  1  0.88640000  0.42040000  0.57900000  1.0
  C  C178  1  0.10780000  0.32200000  0.56270000  1.0
  C  C179  1  0.82280000  0.39540000  0.55900000  1.0
  C  C180  1  0.13290000  0.32500000  0.50560000  1.0
  C  C181  1  0.12680000  0.27250000  0.60020000  1.0
  C  C182  1  0.79530000  0.34290000  0.58890000  1.0
  C  C183  1  0.78970000  0.42290000  0.51000000  1.0
  C  C184  1  0.16930000  0.22590000  0.57740000  1.0
  C  C185  1  0.73200000  0.39330000  0.49290000  1.0
  C  C186  1  0.19370000  0.23380000  0.51970000  1.0
  C  C187  1  0.70840000  0.34270000  0.52420000  1.0
  C  C188  1  0.90210000  0.65080000  0.31380000  1.0
  C  C189  1  0.93310000  0.74160000  0.36760000  1.0
  C  C190  1  0.96540000  0.64340000  0.29230000  1.0
  C  C191  1  0.99490000  0.73790000  0.34820000  1.0
  C  C192  1  0.97970000  0.58810000  0.25200000  1.0
  C  C193  1  0.01200000  0.68710000  0.30870000  1.0
  C  C194  1  0.12690000  0.43900000  0.08380000  1.0
  C  C195  1  0.07960000  0.61360000  0.07900000  1.0
  C  C196  1  0.17800000  0.39220000  0.06270000  1.0
  C  C197  1  0.10460000  0.67720000  0.05900000  1.0
  C  C198  1  0.17500000  0.36710000  0.00560000  1.0
  C  C199  1  0.22750000  0.37320000  0.10020000  1.0
  C  C200  1  0.15710000  0.70470000  0.08890000  1.0
  C  C201  1  0.07710000  0.71030000  0.01000000  1.0
  C  C202  1  0.27410000  0.33070000  0.07740000  1.0
  C  C203  1  0.10670000  0.76800000  0.99290000  1.0
  C  C204  1  0.26620000  0.30630000  0.01970000  1.0
  C  C205  1  0.15730000  0.79160000  0.02420000  1.0
  C  C206  1  0.09790000  0.34920000  0.31380000  1.0
  C  C207  1  0.06690000  0.25840000  0.36760000  1.0
  C  C208  1  0.03460000  0.35660000  0.29230000  1.0
  C  C209  1  0.00510000  0.26210000  0.34820000  1.0
  C  C210  1  0.02030000  0.41190000  0.25200000  1.0
  C  C211  1  0.98800000  0.31290000  0.30870000  1.0
  C  C212  1  0.87310000  0.56100000  0.08380000  1.0
  C  C213  1  0.92040000  0.38640000  0.07900000  1.0
  C  C214  1  0.82200000  0.60780000  0.06270000  1.0
  C  C215  1  0.89540000  0.32280000  0.05900000  1.0
  C  C216  1  0.82500000  0.63290000  0.00560000  1.0
  C  C217  1  0.77250000  0.62680000  0.10020000  1.0
  C  C218  1  0.84290000  0.29530000  0.08890000  1.0
  C  C219  1  0.92290000  0.28970000  0.01000000  1.0
  C  C220  1  0.72590000  0.66930000  0.07740000  1.0
  C  C221  1  0.89330000  0.23200000  0.99290000  1.0
  C  C222  1  0.73380000  0.69370000  0.01970000  1.0
  C  C223  1  0.84270000  0.20840000  0.02420000  1.0
  C  C224  1  0.34920000  0.90210000  0.68620000  1.0
  C  C225  1  0.25840000  0.93310000  0.63240000  1.0
  C  C226  1  0.35660000  0.96540000  0.70770000  1.0
  C  C227  1  0.26210000  0.99490000  0.65180000  1.0
  C  C228  1  0.41190000  0.97970000  0.74800000  1.0
  C  C229  1  0.31290000  0.01200000  0.69130000  1.0
  C  C230  1  0.56100000  0.12690000  0.91620000  1.0
  C  C231  1  0.38640000  0.07960000  0.92100000  1.0
  C  C232  1  0.60780000  0.17800000  0.93730000  1.0
  C  C233  1  0.32280000  0.10460000  0.94100000  1.0
  C  C234  1  0.63290000  0.17500000  0.99440000  1.0
  C  C235  1  0.62680000  0.22750000  0.89980000  1.0
  C  C236  1  0.29530000  0.15710000  0.91110000  1.0
  C  C237  1  0.28970000  0.07710000  0.99000000  1.0
  C  C238  1  0.66930000  0.27410000  0.92260000  1.0
  C  C239  1  0.23200000  0.10670000  0.00710000  1.0
  C  C240  1  0.69370000  0.26620000  0.98030000  1.0
  C  C241  1  0.20840000  0.15730000  0.97580000  1.0
  C  C242  1  0.65080000  0.09790000  0.68620000  1.0
  C  C243  1  0.74160000  0.06690000  0.63240000  1.0
  C  C244  1  0.64340000  0.03460000  0.70770000  1.0
  C  C245  1  0.73790000  0.00510000  0.65180000  1.0
  C  C246  1  0.58810000  0.02030000  0.74800000  1.0
  C  C247  1  0.68710000  0.98800000  0.69130000  1.0
  C  C248  1  0.43900000  0.87310000  0.91620000  1.0
  C  C249  1  0.61360000  0.92040000  0.92100000  1.0
  C  C250  1  0.39220000  0.82200000  0.93730000  1.0
  C  C251  1  0.67720000  0.89540000  0.94100000  1.0
  C  C252  1  0.36710000  0.82500000  0.99440000  1.0
  C  C253  1  0.37320000  0.77250000  0.89980000  1.0
  C  C254  1  0.70470000  0.84290000  0.91110000  1.0
  C  C255  1  0.71030000  0.92290000  0.99000000  1.0
  C  C256  1  0.33070000  0.72590000  0.92260000  1.0
  C  C257  1  0.76800000  0.89330000  0.00710000  1.0
  C  C258  1  0.30630000  0.73380000  0.98030000  1.0
  C  C259  1  0.79160000  0.84270000  0.97580000  1.0
  N  N260  1  0.61340000  0.19860000  0.14970000  1.0
  N  N261  1  0.81530000  0.23990000  0.07130000  1.0
  N  N262  1  0.67630000  0.21870000  0.01660000  1.0
  N  N263  1  0.38660000  0.80140000  0.14970000  1.0
  N  N264  1  0.18470000  0.76010000  0.07130000  1.0
  N  N265  1  0.32370000  0.78130000  0.01660000  1.0
  N  N266  1  0.19860000  0.38660000  0.85030000  1.0
  N  N267  1  0.23990000  0.18470000  0.92870000  1.0
  N  N268  1  0.21870000  0.32370000  0.98340000  1.0
  N  N269  1  0.80140000  0.61340000  0.85030000  1.0
  N  N270  1  0.76010000  0.81530000  0.92870000  1.0
  N  N271  1  0.78130000  0.67630000  0.98340000  1.0
  N  N272  1  0.88660000  0.69860000  0.35030000  1.0
  N  N273  1  0.68470000  0.73990000  0.42870000  1.0
  N  N274  1  0.82370000  0.71870000  0.48340000  1.0
  N  N275  1  0.11340000  0.30140000  0.35030000  1.0
  N  N276  1  0.31530000  0.26010000  0.42870000  1.0
  N  N277  1  0.17630000  0.28130000  0.48340000  1.0
  N  N278  1  0.30140000  0.88660000  0.64970000  1.0
  N  N279  1  0.26010000  0.68470000  0.57130000  1.0
  N  N280  1  0.28130000  0.82370000  0.51660000  1.0
  N  N281  1  0.69860000  0.11340000  0.64970000  1.0
  N  N282  1  0.73990000  0.31530000  0.57130000  1.0
  N  N283  1  0.71870000  0.17630000  0.51660000  1.0
  O  O284  1  0.46320000  0.08740000  0.27030000  1.0
  O  O285  1  0.56320000  0.04810000  0.25730000  1.0
  O  O286  1  0.37040000  0.95450000  0.36170000  1.0
  O  O287  1  0.39580000  0.08960000  0.37420000  1.0
  O  O288  1  0.53630000  0.91210000  0.45300000  1.0
  O  O289  1  0.41370000  0.95880000  0.45400000  1.0
  O  O290  1  0.53680000  0.91260000  0.27030000  1.0
  O  O291  1  0.43680000  0.95190000  0.25730000  1.0
  O  O292  1  0.62960000  0.04550000  0.36170000  1.0
  O  O293  1  0.60420000  0.91040000  0.37420000  1.0
  O  O294  1  0.46370000  0.08790000  0.45300000  1.0
  O  O295  1  0.58630000  0.04120000  0.45400000  1.0
  O  O296  1  0.08740000  0.53680000  0.72970000  1.0
  O  O297  1  0.04810000  0.43680000  0.74270000  1.0
  O  O298  1  0.95450000  0.62960000  0.63830000  1.0
  O  O299  1  0.08960000  0.60420000  0.62580000  1.0
  O  O300  1  0.91210000  0.46370000  0.54700000  1.0
  O  O301  1  0.95880000  0.58630000  0.54600000  1.0
  O  O302  1  0.91260000  0.46320000  0.72970000  1.0
  O  O303  1  0.95190000  0.56320000  0.74270000  1.0
  O  O304  1  0.04550000  0.37040000  0.63830000  1.0
  O  O305  1  0.91040000  0.39580000  0.62580000  1.0
  O  O306  1  0.08790000  0.53630000  0.54700000  1.0
  O  O307  1  0.04120000  0.41370000  0.54600000  1.0
  O  O308  1  0.03680000  0.58740000  0.22970000  1.0
  O  O309  1  0.93680000  0.54810000  0.24270000  1.0
  O  O310  1  0.12960000  0.45450000  0.13830000  1.0
  O  O311  1  0.10420000  0.58960000  0.12580000  1.0
  O  O312  1  0.96370000  0.41210000  0.04700000  1.0
  O  O313  1  0.08630000  0.45880000  0.04600000  1.0
  O  O314  1  0.96320000  0.41260000  0.22970000  1.0
  O  O315  1  0.06320000  0.45190000  0.24270000  1.0
  O  O316  1  0.87040000  0.54550000  0.13830000  1.0
  O  O317  1  0.89580000  0.41040000  0.12580000  1.0
  O  O318  1  0.03630000  0.58790000  0.04700000  1.0
  O  O319  1  0.91370000  0.54120000  0.04600000  1.0
  O  O320  1  0.41260000  0.03680000  0.77030000  1.0
  O  O321  1  0.45190000  0.93680000  0.75730000  1.0
  O  O322  1  0.54550000  0.12960000  0.86170000  1.0
  O  O323  1  0.41040000  0.10420000  0.87420000  1.0
  O  O324  1  0.58790000  0.96370000  0.95300000  1.0
  O  O325  1  0.54120000  0.08630000  0.95400000  1.0
  O  O326  1  0.58740000  0.96320000  0.77030000  1.0
  O  O327  1  0.54810000  0.06320000  0.75730000  1.0
  O  O328  1  0.45450000  0.87040000  0.86170000  1.0
  O  O329  1  0.58960000  0.89580000  0.87420000  1.0
  O  O330  1  0.41210000  0.03630000  0.95300000  1.0
  O  O331  1  0.45880000  0.91370000  0.95400000  1.0
  O  O332  1  0.50000000  0.00000000  0.36150000  1.0
  O  O333  1  0.00000000  0.50000000  0.63850000  1.0
  O  O334  1  0.00000000  0.50000000  0.13850000  1.0
  O  O335  1  0.50000000  0.00000000  0.86150000  1.0
