# generated using pymatgen
data_MnH5C10N3O4
_symmetry_space_group_name_H-M   'P 1'
_cell_length_a   7.84010000
_cell_length_b   10.31760000
_cell_length_c   15.88090000
_cell_angle_alpha   90.00000000
_cell_angle_beta   90.00000000
_cell_angle_gamma   90.00000000
_symmetry_Int_Tables_number   1
_chemical_formula_structural   MnH5C10N3O4
_chemical_formula_sum   'Mn4 H20 C40 N12 O16'
_cell_volume   1284.62213218
_cell_formula_units_Z   4
loop_
 _symmetry_equiv_pos_site_id
 _symmetry_equiv_pos_as_xyz
  1  'x, y, z'
loop_
 _atom_site_type_symbol
 _atom_site_label
 _atom_site_symmetry_multiplicity
 _atom_site_fract_x
 _atom_site_fract_y
 _atom_site_fract_z
 _atom_site_occupancy
  Mn  Mn0  1  0.35574000  0.02704000  0.46966000  1.0
  Mn  Mn1  1  0.64426000  0.97296000  0.96966000  1.0
  Mn  Mn2  1  0.85574000  0.47296000  0.46966000  1.0
  Mn  Mn3  1  0.14426000  0.52704000  0.96966000  1.0
  H  H4  1  0.58790000  0.55000000  0.15830000  1.0
  H  H5  1  0.44910000  0.08100000  0.28240000  1.0
  H  H6  1  0.56720000  0.98460000  0.16640000  1.0
  H  H7  1  0.44000000  0.64020000  0.26470000  1.0
  H  H8  1  0.33350000  0.74670000  0.37950000  1.0
  H  H9  1  0.41210000  0.45000000  0.65830000  1.0
  H  H10  1  0.55090000  0.91900000  0.78240000  1.0
  H  H11  1  0.43280000  0.01540000  0.66640000  1.0
  H  H12  1  0.56000000  0.35980000  0.76470000  1.0
  H  H13  1  0.66650000  0.25330000  0.87950000  1.0
  H  H14  1  0.08790000  0.95000000  0.15830000  1.0
  H  H15  1  0.94910000  0.41900000  0.28240000  1.0
  H  H16  1  0.06720000  0.51540000  0.16640000  1.0
  H  H17  1  0.94000000  0.85980000  0.26470000  1.0
  H  H18  1  0.83350000  0.75330000  0.37950000  1.0
  H  H19  1  0.91210000  0.05000000  0.65830000  1.0
  H  H20  1  0.05090000  0.58100000  0.78240000  1.0
  H  H21  1  0.93280000  0.48460000  0.66640000  1.0
  H  H22  1  0.06000000  0.14020000  0.76470000  1.0
  H  H23  1  0.16650000  0.24670000  0.87950000  1.0
  C  C24  1  0.45040000  0.99100000  0.27940000  1.0
  C  C25  1  0.52040000  0.93390000  0.20903000  1.0
  C  C26  1  0.52030000  0.79980000  0.20250000  1.0
  C  C27  1  0.44610000  0.73010000  0.26744000  1.0
  C  C28  1  0.38150000  0.79500000  0.33610000  1.0
  C  C29  1  0.60690000  0.73740000  0.13149000  1.0
  C  C30  1  0.76590000  0.70460000  0.02278000  1.0
  C  C31  1  0.73220000  0.58430000  0.05765000  1.0
  C  C32  1  0.78160000  0.44690000  0.03549000  1.0
  C  C33  1  0.86760000  0.74430000  0.94821000  1.0
  C  C34  1  0.54960000  0.00900000  0.77940000  1.0
  C  C35  1  0.47960000  0.06610000  0.70903000  1.0
  C  C36  1  0.47970000  0.20020000  0.70250000  1.0
  C  C37  1  0.55390000  0.26990000  0.76744000  1.0
  C  C38  1  0.61850000  0.20500000  0.83610000  1.0
  C  C39  1  0.39310000  0.26260000  0.63149000  1.0
  C  C40  1  0.23410000  0.29540000  0.52278000  1.0
  C  C41  1  0.26780000  0.41570000  0.55765000  1.0
  C  C42  1  0.21840000  0.55310000  0.53549000  1.0
  C  C43  1  0.13240000  0.25570000  0.44821000  1.0
  C  C44  1  0.95040000  0.50900000  0.27940000  1.0
  C  C45  1  0.02040000  0.56610000  0.20903000  1.0
  C  C46  1  0.02030000  0.70020000  0.20250000  1.0
  C  C47  1  0.94610000  0.76990000  0.26744000  1.0
  C  C48  1  0.88150000  0.70500000  0.33610000  1.0
  C  C49  1  0.10690000  0.76260000  0.13149000  1.0
  C  C50  1  0.26590000  0.79540000  0.02278000  1.0
  C  C51  1  0.23220000  0.91570000  0.05765000  1.0
  C  C52  1  0.28160000  0.05310000  0.03549000  1.0
  C  C53  1  0.36760000  0.75570000  0.94821000  1.0
  C  C54  1  0.04960000  0.49100000  0.77940000  1.0
  C  C55  1  0.97960000  0.43390000  0.70903000  1.0
  C  C56  1  0.97970000  0.29980000  0.70250000  1.0
  C  C57  1  0.05390000  0.23010000  0.76744000  1.0
  C  C58  1  0.11850000  0.29500000  0.83610000  1.0
  C  C59  1  0.89310000  0.23740000  0.63149000  1.0
  C  C60  1  0.73410000  0.20460000  0.52278000  1.0
  C  C61  1  0.76780000  0.08430000  0.55765000  1.0
  C  C62  1  0.71840000  0.94690000  0.53549000  1.0
  C  C63  1  0.63240000  0.24430000  0.44821000  1.0
  N  N64  1  0.38420000  0.92410000  0.34353000  1.0
  N  N65  1  0.68340000  0.79910000  0.06908000  1.0
  N  N66  1  0.63020000  0.60760000  0.12522000  1.0
  N  N67  1  0.61580000  0.07590000  0.84353000  1.0
  N  N68  1  0.31660000  0.20090000  0.56908000  1.0
  N  N69  1  0.36980000  0.39240000  0.62522000  1.0
  N  N70  1  0.88420000  0.57590000  0.34353000  1.0
  N  N71  1  0.18340000  0.70090000  0.06908000  1.0
  N  N72  1  0.13020000  0.89240000  0.12522000  1.0
  N  N73  1  0.11580000  0.42410000  0.84353000  1.0
  N  N74  1  0.81660000  0.29910000  0.56908000  1.0
  N  N75  1  0.86980000  0.10760000  0.62522000  1.0
  O  O76  1  0.84990000  0.85930000  0.92261000  1.0
  O  O77  1  0.96610000  0.66380000  0.91519000  1.0
  O  O78  1  0.93190000  0.42267000  0.01617000  1.0
  O  O79  1  0.66570000  0.36470000  0.04215000  1.0
  O  O80  1  0.15010000  0.14070000  0.42261000  1.0
  O  O81  1  0.03390000  0.33620000  0.41519000  1.0
  O  O82  1  0.06810000  0.57733000  0.51617000  1.0
  O  O83  1  0.33430000  0.63530000  0.54215000  1.0
  O  O84  1  0.34990000  0.64070000  0.92261000  1.0
  O  O85  1  0.46610000  0.83620000  0.91519000  1.0
  O  O86  1  0.43190000  0.07733000  0.01617000  1.0
  O  O87  1  0.16570000  0.13530000  0.04215000  1.0
  O  O88  1  0.65010000  0.35930000  0.42261000  1.0
  O  O89  1  0.53390000  0.16380000  0.41519000  1.0
  O  O90  1  0.56810000  0.92267000  0.51617000  1.0
  O  O91  1  0.83430000  0.86470000  0.54215000  1.0
