# generated using pymatgen
data_CrH5C8O5
_symmetry_space_group_name_H-M   'P 1'
_cell_length_a   14.87310000
_cell_length_b   6.83650000
_cell_length_c   15.24490000
_cell_angle_alpha   90.00000000
_cell_angle_beta   90.00000000
_cell_angle_gamma   90.00000000
_symmetry_Int_Tables_number   1
_chemical_formula_structural   CrH5C8O5
_chemical_formula_sum   'Cr4 H20 C32 O20'
_cell_volume   1550.10064155
_cell_formula_units_Z   4
loop_
 _symmetry_equiv_pos_site_id
 _symmetry_equiv_pos_as_xyz
  1  'x, y, z'
loop_
 _atom_site_type_symbol
 _atom_site_label
 _atom_site_symmetry_multiplicity
 _atom_site_fract_x
 _atom_site_fract_y
 _atom_site_fract_z
 _atom_site_occupancy
  Cr  Cr0  1  0.00000000  0.50000000  0.50000000  1.0
  Cr  Cr1  1  0.50000000  0.00000000  0.00000000  1.0
  Cr  Cr2  1  0.00000000  0.00000000  0.50000000  1.0
  Cr  Cr3  1  0.50000000  0.50000000  0.00000000  1.0
  H  H4  1  0.19680000  0.45230000  0.69300000  1.0
  H  H5  1  0.50000000  0.75000000  0.11710000  1.0
  H  H6  1  0.69680000  0.95230000  0.19300000  1.0
  H  H7  1  0.80320000  0.04770000  0.69300000  1.0
  H  H8  1  0.30320000  0.54770000  0.19300000  1.0
  H  H9  1  0.00000000  0.25000000  0.61710000  1.0
  H  H10  1  0.80320000  0.95230000  0.30700000  1.0
  H  H11  1  0.50000000  0.25000000  0.88290000  1.0
  H  H12  1  0.30320000  0.45230000  0.80700000  1.0
  H  H13  1  0.00000000  0.75000000  0.38290000  1.0
  H  H14  1  0.19680000  0.54770000  0.30700000  1.0
  H  H15  1  0.69680000  0.04770000  0.80700000  1.0
  H  H16  1  0.80320000  0.54770000  0.30700000  1.0
  H  H17  1  0.30320000  0.04770000  0.80700000  1.0
  H  H18  1  0.19680000  0.95230000  0.30700000  1.0
  H  H19  1  0.69680000  0.45230000  0.80700000  1.0
  H  H20  1  0.19680000  0.04770000  0.69300000  1.0
  H  H21  1  0.69680000  0.54770000  0.19300000  1.0
  H  H22  1  0.80320000  0.45230000  0.69300000  1.0
  H  H23  1  0.30320000  0.95230000  0.19300000  1.0
  C  C24  1  0.21900000  0.57650000  0.71680000  1.0
  C  C25  1  0.71900000  0.07650000  0.21680000  1.0
  C  C26  1  0.78100000  0.92350000  0.71680000  1.0
  C  C27  1  0.28100000  0.42350000  0.21680000  1.0
  C  C28  1  0.78100000  0.07650000  0.28320000  1.0
  C  C29  1  0.28100000  0.57650000  0.78320000  1.0
  C  C30  1  0.21900000  0.42350000  0.28320000  1.0
  C  C31  1  0.71900000  0.92350000  0.78320000  1.0
  C  C32  1  0.78100000  0.42350000  0.28320000  1.0
  C  C33  1  0.28100000  0.92350000  0.78320000  1.0
  C  C34  1  0.21900000  0.07650000  0.28320000  1.0
  C  C35  1  0.71900000  0.57650000  0.78320000  1.0
  C  C36  1  0.21900000  0.92350000  0.71680000  1.0
  C  C37  1  0.71900000  0.42350000  0.21680000  1.0
  C  C38  1  0.78100000  0.57650000  0.71680000  1.0
  C  C39  1  0.28100000  0.07650000  0.21680000  1.0
  C  C40  1  0.18790000  0.75000000  0.68360000  1.0
  C  C41  1  0.12130000  0.75000000  0.61230000  1.0
  C  C42  1  0.68790000  0.25000000  0.18360000  1.0
  C  C43  1  0.62130000  0.25000000  0.11230000  1.0
  C  C44  1  0.81210000  0.75000000  0.68360000  1.0
  C  C45  1  0.87870000  0.75000000  0.61230000  1.0
  C  C46  1  0.31210000  0.25000000  0.18360000  1.0
  C  C47  1  0.37870000  0.25000000  0.11230000  1.0
  C  C48  1  0.81210000  0.25000000  0.31640000  1.0
  C  C49  1  0.87870000  0.25000000  0.38770000  1.0
  C  C50  1  0.31210000  0.75000000  0.81640000  1.0
  C  C51  1  0.37870000  0.75000000  0.88770000  1.0
  C  C52  1  0.18790000  0.25000000  0.31640000  1.0
  C  C53  1  0.12130000  0.25000000  0.38770000  1.0
  C  C54  1  0.68790000  0.75000000  0.81640000  1.0
  C  C55  1  0.62130000  0.75000000  0.88770000  1.0
  O  O56  1  0.09300000  0.59180000  0.58210000  1.0
  O  O57  1  0.59300000  0.09180000  0.08210000  1.0
  O  O58  1  0.90700000  0.90820000  0.58210000  1.0
  O  O59  1  0.40700000  0.40820000  0.08210000  1.0
  O  O60  1  0.90700000  0.09180000  0.41790000  1.0
  O  O61  1  0.40700000  0.59180000  0.91790000  1.0
  O  O62  1  0.09300000  0.40820000  0.41790000  1.0
  O  O63  1  0.59300000  0.90820000  0.91790000  1.0
  O  O64  1  0.90700000  0.40820000  0.41790000  1.0
  O  O65  1  0.40700000  0.90820000  0.91790000  1.0
  O  O66  1  0.09300000  0.09180000  0.41790000  1.0
  O  O67  1  0.59300000  0.59180000  0.91790000  1.0
  O  O68  1  0.09300000  0.90820000  0.58210000  1.0
  O  O69  1  0.59300000  0.40820000  0.08210000  1.0
  O  O70  1  0.90700000  0.59180000  0.58210000  1.0
  O  O71  1  0.40700000  0.09180000  0.08210000  1.0
  O  O72  1  0.00000000  0.75000000  0.44850000  1.0
  O  O73  1  0.50000000  0.25000000  0.94850000  1.0
  O  O74  1  0.00000000  0.25000000  0.55150000  1.0
  O  O75  1  0.50000000  0.75000000  0.05150000  1.0
