# generated using pymatgen
data_EuH3C9(NO2)3
_symmetry_space_group_name_H-M   'P 1'
_cell_length_a   10.37490000
_cell_length_b   13.89830000
_cell_length_c   17.94600000
_cell_angle_alpha   99.71700000
_cell_angle_beta   90.00000000
_cell_angle_gamma   90.00000000
_symmetry_Int_Tables_number   1
_chemical_formula_structural   EuH3C9(NO2)3
_chemical_formula_sum   'Eu8 H24 C72 N24 O48'
_cell_volume   2550.57150795
_cell_formula_units_Z   8
loop_
 _symmetry_equiv_pos_site_id
 _symmetry_equiv_pos_as_xyz
  1  'x, y, z'
loop_
 _atom_site_type_symbol
 _atom_site_label
 _atom_site_symmetry_multiplicity
 _atom_site_fract_x
 _atom_site_fract_y
 _atom_site_fract_z
 _atom_site_occupancy
  Eu  Eu0  1  0.75099000  0.39801000  0.70851000  1.0
  Eu  Eu1  1  0.72998000  0.34817000  0.34413000  1.0
  Eu  Eu2  1  0.25099000  0.10199000  0.79149000  1.0
  Eu  Eu3  1  0.22998000  0.15183000  0.15587000  1.0
  Eu  Eu4  1  0.24901000  0.60199000  0.29149000  1.0
  Eu  Eu5  1  0.27002000  0.65183000  0.65587000  1.0
  Eu  Eu6  1  0.74901000  0.89801000  0.20851000  1.0
  Eu  Eu7  1  0.77002000  0.84817000  0.84413000  1.0
  H  H8  1  0.60680000  0.63600000  0.50930000  1.0
  H  H9  1  0.98150000  0.63110000  0.53190000  1.0
  H  H10  1  0.48680000  0.63810000  0.92680000  1.0
  H  H11  1  0.34590000  0.37430000  0.89810000  1.0
  H  H12  1  0.55100000  0.17000000  0.56880000  1.0
  H  H13  1  0.35520000  0.09320000  0.38260000  1.0
  H  H14  1  0.10680000  0.86400000  0.99070000  1.0
  H  H15  1  0.48150000  0.86890000  0.96810000  1.0
  H  H16  1  0.98680000  0.86190000  0.57320000  1.0
  H  H17  1  0.84590000  0.12570000  0.60190000  1.0
  H  H18  1  0.05100000  0.33000000  0.93120000  1.0
  H  H19  1  0.85520000  0.40680000  0.11740000  1.0
  H  H20  1  0.39320000  0.36400000  0.49070000  1.0
  H  H21  1  0.01850000  0.36890000  0.46810000  1.0
  H  H22  1  0.51320000  0.36190000  0.07320000  1.0
  H  H23  1  0.65410000  0.62570000  0.10190000  1.0
  H  H24  1  0.44900000  0.83000000  0.43120000  1.0
  H  H25  1  0.64480000  0.90680000  0.61740000  1.0
  H  H26  1  0.89320000  0.13600000  0.00930000  1.0
  H  H27  1  0.51850000  0.13110000  0.03190000  1.0
  H  H28  1  0.01320000  0.13810000  0.42680000  1.0
  H  H29  1  0.15410000  0.87430000  0.39810000  1.0
  H  H30  1  0.94900000  0.67000000  0.06880000  1.0
  H  H31  1  0.14480000  0.59320000  0.88260000  1.0
  C  C32  1  0.66800000  0.55040000  0.58210000  1.0
  C  C33  1  0.68060000  0.61430000  0.53080000  1.0
  C  C34  1  0.89950000  0.61180000  0.54440000  1.0
  C  C35  1  0.88550000  0.54930000  0.59620000  1.0
  C  C36  1  0.54040000  0.51430000  0.60890000  1.0
  C  C37  1  0.99660000  0.50960000  0.63600000  1.0
  C  C38  1  0.57500000  0.54570000  0.84510000  1.0
  C  C39  1  0.48750000  0.57360000  0.90230000  1.0
  C  C40  1  0.40420000  0.41960000  0.88520000  1.0
  C  C41  1  0.49010000  0.39120000  0.82680000  1.0
  C  C42  1  0.67390000  0.60990000  0.81880000  1.0
  C  C43  1  0.49370000  0.29150000  0.77860000  1.0
  C  C44  1  0.61060000  0.23470000  0.48350000  1.0
  C  C45  1  0.53580000  0.17350000  0.51820000  1.0
  C  C46  1  0.42020000  0.12960000  0.40970000  1.0
  C  C47  1  0.49040000  0.19230000  0.37490000  1.0
  C  C48  1  0.71900000  0.29850000  0.52020000  1.0
  C  C49  1  0.46860000  0.21360000  0.29640000  1.0
  C  C50  1  0.16800000  0.94960000  0.91790000  1.0
  C  C51  1  0.18060000  0.88570000  0.96920000  1.0
  C  C52  1  0.39950000  0.88820000  0.95560000  1.0
  C  C53  1  0.38550000  0.95070000  0.90380000  1.0
  C  C54  1  0.04040000  0.98570000  0.89110000  1.0
  C  C55  1  0.49660000  0.99040000  0.86400000  1.0
  C  C56  1  0.07500000  0.95430000  0.65490000  1.0
  C  C57  1  0.98750000  0.92640000  0.59770000  1.0
  C  C58  1  0.90420000  0.08040000  0.61480000  1.0
  C  C59  1  0.99010000  0.10880000  0.67320000  1.0
  C  C60  1  0.17390000  0.89010000  0.68120000  1.0
  C  C61  1  0.99370000  0.20850000  0.72140000  1.0
  C  C62  1  0.11060000  0.26530000  0.01650000  1.0
  C  C63  1  0.03580000  0.32650000  0.98180000  1.0
  C  C64  1  0.92020000  0.37040000  0.09030000  1.0
  C  C65  1  0.99040000  0.30770000  0.12510000  1.0
  C  C66  1  0.21900000  0.20150000  0.97980000  1.0
  C  C67  1  0.96860000  0.28640000  0.20360000  1.0
  C  C68  1  0.33200000  0.44960000  0.41790000  1.0
  C  C69  1  0.31940000  0.38570000  0.46920000  1.0
  C  C70  1  0.10050000  0.38820000  0.45560000  1.0
  C  C71  1  0.11450000  0.45070000  0.40380000  1.0
  C  C72  1  0.45960000  0.48570000  0.39110000  1.0
  C  C73  1  0.00340000  0.49040000  0.36400000  1.0
  C  C74  1  0.42500000  0.45430000  0.15490000  1.0
  C  C75  1  0.51250000  0.42640000  0.09770000  1.0
  C  C76  1  0.59580000  0.58040000  0.11480000  1.0
  C  C77  1  0.50990000  0.60880000  0.17320000  1.0
  C  C78  1  0.32610000  0.39010000  0.18120000  1.0
  C  C79  1  0.50630000  0.70850000  0.22140000  1.0
  C  C80  1  0.38940000  0.76530000  0.51650000  1.0
  C  C81  1  0.46420000  0.82650000  0.48180000  1.0
  C  C82  1  0.57980000  0.87040000  0.59030000  1.0
  C  C83  1  0.50960000  0.80770000  0.62510000  1.0
  C  C84  1  0.28100000  0.70150000  0.47980000  1.0
  C  C85  1  0.53140000  0.78640000  0.70360000  1.0
  C  C86  1  0.83200000  0.05040000  0.08210000  1.0
  C  C87  1  0.81940000  0.11430000  0.03080000  1.0
  C  C88  1  0.60050000  0.11180000  0.04440000  1.0
  C  C89  1  0.61450000  0.04930000  0.09620000  1.0
  C  C90  1  0.95960000  0.01430000  0.10890000  1.0
  C  C91  1  0.50340000  0.00960000  0.13600000  1.0
  C  C92  1  0.92500000  0.04570000  0.34510000  1.0
  C  C93  1  0.01250000  0.07360000  0.40230000  1.0
  C  C94  1  0.09580000  0.91960000  0.38520000  1.0
  C  C95  1  0.00990000  0.89120000  0.32680000  1.0
  C  C96  1  0.82610000  0.10990000  0.31880000  1.0
  C  C97  1  0.00630000  0.79150000  0.27860000  1.0
  C  C98  1  0.88940000  0.73470000  0.98350000  1.0
  C  C99  1  0.96420000  0.67350000  0.01820000  1.0
  C  C100  1  0.07980000  0.62960000  0.90970000  1.0
  C  C101  1  0.00960000  0.69230000  0.87490000  1.0
  C  C102  1  0.78100000  0.79850000  0.02020000  1.0
  C  C103  1  0.03140000  0.71360000  0.79640000  1.0
  N  N104  1  0.77040000  0.51640000  0.61370000  1.0
  N  N105  1  0.79480000  0.64530000  0.51170000  1.0
  N  N106  1  0.57650000  0.45390000  0.80730000  1.0
  N  N107  1  0.40320000  0.51050000  0.92350000  1.0
  N  N108  1  0.58780000  0.24320000  0.41170000  1.0
  N  N109  1  0.44140000  0.11880000  0.48140000  1.0
  N  N110  1  0.27040000  0.98360000  0.88630000  1.0
  N  N111  1  0.29480000  0.85470000  0.98830000  1.0
  N  N112  1  0.07650000  0.04610000  0.69270000  1.0
  N  N113  1  0.90320000  0.98950000  0.57650000  1.0
  N  N114  1  0.08780000  0.25680000  0.08830000  1.0
  N  N115  1  0.94140000  0.38120000  0.01860000  1.0
  N  N116  1  0.22960000  0.48360000  0.38630000  1.0
  N  N117  1  0.20520000  0.35470000  0.48830000  1.0
  N  N118  1  0.42350000  0.54610000  0.19270000  1.0
  N  N119  1  0.59680000  0.48950000  0.07650000  1.0
  N  N120  1  0.41220000  0.75680000  0.58830000  1.0
  N  N121  1  0.55860000  0.88120000  0.51860000  1.0
  N  N122  1  0.72960000  0.01640000  0.11370000  1.0
  N  N123  1  0.70520000  0.14530000  0.01170000  1.0
  N  N124  1  0.92350000  0.95390000  0.30730000  1.0
  N  N125  1  0.09680000  0.01050000  0.42350000  1.0
  N  N126  1  0.91220000  0.74320000  0.91170000  1.0
  N  N127  1  0.05860000  0.61880000  0.98140000  1.0
  O  O128  1  0.54650000  0.45100000  0.65050000  1.0
  O  O129  1  0.43910000  0.55260000  0.58810000  1.0
  O  O130  1  0.96710000  0.45470000  0.68100000  1.0
  O  O131  1  0.10730000  0.53550000  0.62150000  1.0
  O  O132  1  0.75230000  0.57100000  0.77050000  1.0
  O  O133  1  0.67040000  0.69860000  0.84810000  1.0
  O  O134  1  0.58820000  0.27560000  0.73310000  1.0
  O  O135  1  0.40380000  0.23460000  0.78820000  1.0
  O  O136  1  0.77770000  0.34750000  0.47850000  1.0
  O  O137  1  0.74110000  0.29770000  0.58850000  1.0
  O  O138  1  0.54780000  0.27030000  0.27300000  1.0
  O  O139  1  0.37250000  0.17310000  0.26130000  1.0
  O  O140  1  0.04650000  0.04900000  0.84950000  1.0
  O  O141  1  0.93910000  0.94740000  0.91190000  1.0
  O  O142  1  0.46710000  0.04530000  0.81900000  1.0
  O  O143  1  0.60730000  0.96450000  0.87850000  1.0
  O  O144  1  0.25230000  0.92900000  0.72950000  1.0
  O  O145  1  0.17040000  0.80140000  0.65190000  1.0
  O  O146  1  0.08820000  0.22440000  0.76690000  1.0
  O  O147  1  0.90380000  0.26540000  0.71180000  1.0
  O  O148  1  0.27770000  0.15250000  0.02150000  1.0
  O  O149  1  0.24110000  0.20230000  0.91150000  1.0
  O  O150  1  0.04780000  0.22970000  0.22700000  1.0
  O  O151  1  0.87250000  0.32690000  0.23870000  1.0
  O  O152  1  0.45350000  0.54900000  0.34950000  1.0
  O  O153  1  0.56090000  0.44740000  0.41190000  1.0
  O  O154  1  0.03290000  0.54530000  0.31900000  1.0
  O  O155  1  0.89270000  0.46450000  0.37850000  1.0
  O  O156  1  0.24770000  0.42900000  0.22950000  1.0
  O  O157  1  0.32960000  0.30140000  0.15190000  1.0
  O  O158  1  0.41180000  0.72440000  0.26690000  1.0
  O  O159  1  0.59620000  0.76540000  0.21180000  1.0
  O  O160  1  0.22230000  0.65250000  0.52150000  1.0
  O  O161  1  0.25890000  0.70230000  0.41150000  1.0
  O  O162  1  0.45220000  0.72970000  0.72700000  1.0
  O  O163  1  0.62750000  0.82690000  0.73870000  1.0
  O  O164  1  0.95350000  0.95100000  0.15050000  1.0
  O  O165  1  0.06090000  0.05260000  0.08810000  1.0
  O  O166  1  0.53290000  0.95470000  0.18100000  1.0
  O  O167  1  0.39270000  0.03550000  0.12150000  1.0
  O  O168  1  0.74770000  0.07100000  0.27050000  1.0
  O  O169  1  0.82960000  0.19860000  0.34810000  1.0
  O  O170  1  0.91180000  0.77560000  0.23310000  1.0
  O  O171  1  0.09620000  0.73460000  0.28820000  1.0
  O  O172  1  0.72230000  0.84750000  0.97850000  1.0
  O  O173  1  0.75890000  0.79770000  0.08850000  1.0
  O  O174  1  0.95220000  0.77030000  0.77300000  1.0
  O  O175  1  0.12750000  0.67310000  0.76130000  1.0
