# generated using pymatgen
data_AgH12(C3N)6
_symmetry_space_group_name_H-M   'P 1'
_cell_length_a   21.93020000
_cell_length_b   16.77950000
_cell_length_c   25.48800000
_cell_angle_alpha   90.00000000
_cell_angle_beta   115.02900000
_cell_angle_gamma   90.00000000
_symmetry_Int_Tables_number   1
_chemical_formula_structural   AgH12(C3N)6
_chemical_formula_sum   'Ag16 H192 C288 N96'
_cell_volume   8498.26966878
_cell_formula_units_Z   16
loop_
 _symmetry_equiv_pos_site_id
 _symmetry_equiv_pos_as_xyz
  1  'x, y, z'
loop_
 _atom_site_type_symbol
 _atom_site_label
 _atom_site_symmetry_multiplicity
 _atom_site_fract_x
 _atom_site_fract_y
 _atom_site_fract_z
 _atom_site_occupancy
  Ag  Ag0  1  0.34423000  0.45588000  0.36631000  1.0
  Ag  Ag1  1  0.32111000  0.75773000  0.86597000  1.0
  Ag  Ag2  1  0.84423000  0.95588000  0.36631000  1.0
  Ag  Ag3  1  0.82111000  0.25773000  0.86597000  1.0
  Ag  Ag4  1  0.65577000  0.45588000  0.13369000  1.0
  Ag  Ag5  1  0.67889000  0.75773000  0.63403000  1.0
  Ag  Ag6  1  0.15577000  0.95588000  0.13369000  1.0
  Ag  Ag7  1  0.17889000  0.25773000  0.63403000  1.0
  Ag  Ag8  1  0.65577000  0.54412000  0.63369000  1.0
  Ag  Ag9  1  0.67889000  0.24227000  0.13403000  1.0
  Ag  Ag10  1  0.15577000  0.04412000  0.63369000  1.0
  Ag  Ag11  1  0.17889000  0.74227000  0.13403000  1.0
  Ag  Ag12  1  0.34423000  0.54412000  0.86631000  1.0
  Ag  Ag13  1  0.32111000  0.24227000  0.36597000  1.0
  Ag  Ag14  1  0.84423000  0.04412000  0.86631000  1.0
  Ag  Ag15  1  0.82111000  0.74227000  0.36597000  1.0
  H  H16  1  0.05370000  0.78780000  0.38670000  1.0
  H  H17  1  0.79690000  0.13470000  0.04720000  1.0
  H  H18  1  0.31940000  0.58730000  0.54300000  1.0
  H  H19  1  0.52320000  0.88410000  0.03410000  1.0
  H  H20  1  0.70030000  0.15640000  0.84970000  1.0
  H  H21  1  0.42410000  0.81610000  0.98220000  1.0
  H  H22  1  0.21470000  0.55860000  0.34670000  1.0
  H  H23  1  0.63490000  0.93710000  0.15890000  1.0
  H  H24  1  0.04190000  0.83080000  0.53670000  1.0
  H  H25  1  0.84720000  0.20630000  0.99890000  1.0
  H  H26  1  0.16200000  0.63150000  0.39140000  1.0
  H  H27  1  0.64360000  0.08840000  0.89390000  1.0
  H  H28  1  0.36720000  0.51870000  0.49290000  1.0
  H  H29  1  0.51890000  0.95790000  0.88330000  1.0
  H  H30  1  0.95490000  0.85830000  0.34100000  1.0
  H  H31  1  0.84950000  0.02310000  0.26140000  1.0
  H  H32  1  0.17380000  0.81310000  0.65410000  1.0
  H  H33  1  0.94430000  0.89450000  0.48630000  1.0
  H  H34  1  0.68730000  0.92290000  0.25690000  1.0
  H  H35  1  0.22660000  0.82840000  0.75220000  1.0
  H  H36  1  0.42380000  0.88380000  0.83670000  1.0
  H  H37  1  0.80200000  0.03740000  0.16230000  1.0
  H  H38  1  0.32450000  0.66880000  0.66540000  1.0
  H  H39  1  0.36760000  0.68450000  0.76470000  1.0
  H  H40  1  0.55370000  0.28780000  0.38670000  1.0
  H  H41  1  0.29690000  0.63470000  0.04720000  1.0
  H  H42  1  0.81940000  0.08730000  0.54300000  1.0
  H  H43  1  0.02320000  0.38410000  0.03410000  1.0
  H  H44  1  0.20030000  0.65640000  0.84970000  1.0
  H  H45  1  0.92410000  0.31610000  0.98220000  1.0
  H  H46  1  0.71470000  0.05860000  0.34670000  1.0
  H  H47  1  0.13490000  0.43710000  0.15890000  1.0
  H  H48  1  0.54190000  0.33080000  0.53670000  1.0
  H  H49  1  0.34720000  0.70630000  0.99890000  1.0
  H  H50  1  0.66200000  0.13150000  0.39140000  1.0
  H  H51  1  0.14360000  0.58840000  0.89390000  1.0
  H  H52  1  0.86720000  0.01870000  0.49290000  1.0
  H  H53  1  0.01890000  0.45790000  0.88330000  1.0
  H  H54  1  0.45490000  0.35830000  0.34100000  1.0
  H  H55  1  0.34950000  0.52310000  0.26140000  1.0
  H  H56  1  0.67380000  0.31310000  0.65410000  1.0
  H  H57  1  0.44430000  0.39450000  0.48630000  1.0
  H  H58  1  0.18730000  0.42290000  0.25690000  1.0
  H  H59  1  0.72660000  0.32840000  0.75220000  1.0
  H  H60  1  0.92380000  0.38380000  0.83670000  1.0
  H  H61  1  0.30200000  0.53740000  0.16230000  1.0
  H  H62  1  0.82450000  0.16880000  0.66540000  1.0
  H  H63  1  0.86760000  0.18450000  0.76470000  1.0
  H  H64  1  0.94630000  0.78780000  0.11330000  1.0
  H  H65  1  0.20310000  0.13470000  0.45280000  1.0
  H  H66  1  0.68060000  0.58730000  0.95700000  1.0
  H  H67  1  0.47680000  0.88410000  0.46590000  1.0
  H  H68  1  0.29970000  0.15640000  0.65030000  1.0
  H  H69  1  0.57590000  0.81610000  0.51780000  1.0
  H  H70  1  0.78530000  0.55860000  0.15330000  1.0
  H  H71  1  0.36510000  0.93710000  0.34110000  1.0
  H  H72  1  0.95810000  0.83080000  0.96330000  1.0
  H  H73  1  0.15280000  0.20630000  0.50110000  1.0
  H  H74  1  0.83800000  0.63150000  0.10860000  1.0
  H  H75  1  0.35640000  0.08840000  0.60610000  1.0
  H  H76  1  0.63280000  0.51870000  0.00710000  1.0
  H  H77  1  0.48110000  0.95790000  0.61670000  1.0
  H  H78  1  0.04510000  0.85830000  0.15900000  1.0
  H  H79  1  0.15050000  0.02310000  0.23860000  1.0
  H  H80  1  0.82620000  0.81310000  0.84590000  1.0
  H  H81  1  0.05570000  0.89450000  0.01370000  1.0
  H  H82  1  0.31270000  0.92290000  0.24310000  1.0
  H  H83  1  0.77340000  0.82840000  0.74780000  1.0
  H  H84  1  0.57620000  0.88380000  0.66330000  1.0
  H  H85  1  0.19800000  0.03740000  0.33770000  1.0
  H  H86  1  0.67550000  0.66880000  0.83460000  1.0
  H  H87  1  0.63240000  0.68450000  0.73530000  1.0
  H  H88  1  0.44630000  0.28780000  0.11330000  1.0
  H  H89  1  0.70310000  0.63470000  0.45280000  1.0
  H  H90  1  0.18060000  0.08730000  0.95700000  1.0
  H  H91  1  0.97680000  0.38410000  0.46590000  1.0
  H  H92  1  0.79970000  0.65640000  0.65030000  1.0
  H  H93  1  0.07590000  0.31610000  0.51780000  1.0
  H  H94  1  0.28530000  0.05860000  0.15330000  1.0
  H  H95  1  0.86510000  0.43710000  0.34110000  1.0
  H  H96  1  0.45810000  0.33080000  0.96330000  1.0
  H  H97  1  0.65280000  0.70630000  0.50110000  1.0
  H  H98  1  0.33800000  0.13150000  0.10860000  1.0
  H  H99  1  0.85640000  0.58840000  0.60610000  1.0
  H  H100  1  0.13280000  0.01870000  0.00710000  1.0
  H  H101  1  0.98110000  0.45790000  0.61670000  1.0
  H  H102  1  0.54510000  0.35830000  0.15900000  1.0
  H  H103  1  0.65050000  0.52310000  0.23860000  1.0
  H  H104  1  0.32620000  0.31310000  0.84590000  1.0
  H  H105  1  0.55570000  0.39450000  0.01370000  1.0
  H  H106  1  0.81270000  0.42290000  0.24310000  1.0
  H  H107  1  0.27340000  0.32840000  0.74780000  1.0
  H  H108  1  0.07620000  0.38380000  0.66330000  1.0
  H  H109  1  0.69800000  0.53740000  0.33770000  1.0
  H  H110  1  0.17550000  0.16880000  0.83460000  1.0
  H  H111  1  0.13240000  0.18450000  0.73530000  1.0
  H  H112  1  0.94630000  0.21220000  0.61330000  1.0
  H  H113  1  0.20310000  0.86530000  0.95280000  1.0
  H  H114  1  0.68060000  0.41270000  0.45700000  1.0
  H  H115  1  0.47680000  0.11590000  0.96590000  1.0
  H  H116  1  0.29970000  0.84360000  0.15030000  1.0
  H  H117  1  0.57590000  0.18390000  0.01780000  1.0
  H  H118  1  0.78530000  0.44140000  0.65330000  1.0
  H  H119  1  0.36510000  0.06290000  0.84110000  1.0
  H  H120  1  0.95810000  0.16920000  0.46330000  1.0
  H  H121  1  0.15280000  0.79370000  0.00110000  1.0
  H  H122  1  0.83800000  0.36850000  0.60860000  1.0
  H  H123  1  0.35640000  0.91160000  0.10610000  1.0
  H  H124  1  0.63280000  0.48130000  0.50710000  1.0
  H  H125  1  0.48110000  0.04210000  0.11670000  1.0
  H  H126  1  0.04510000  0.14170000  0.65900000  1.0
  H  H127  1  0.15050000  0.97690000  0.73860000  1.0
  H  H128  1  0.82620000  0.18690000  0.34590000  1.0
  H  H129  1  0.05570000  0.10550000  0.51370000  1.0
  H  H130  1  0.31270000  0.07710000  0.74310000  1.0
  H  H131  1  0.77340000  0.17160000  0.24780000  1.0
  H  H132  1  0.57620000  0.11620000  0.16330000  1.0
  H  H133  1  0.19800000  0.96260000  0.83770000  1.0
  H  H134  1  0.67550000  0.33120000  0.33460000  1.0
  H  H135  1  0.63240000  0.31550000  0.23530000  1.0
  H  H136  1  0.44630000  0.71220000  0.61330000  1.0
  H  H137  1  0.70310000  0.36530000  0.95280000  1.0
  H  H138  1  0.18060000  0.91270000  0.45700000  1.0
  H  H139  1  0.97680000  0.61590000  0.96590000  1.0
  H  H140  1  0.79970000  0.34360000  0.15030000  1.0
  H  H141  1  0.07590000  0.68390000  0.01780000  1.0
  H  H142  1  0.28530000  0.94140000  0.65330000  1.0
  H  H143  1  0.86510000  0.56290000  0.84110000  1.0
  H  H144  1  0.45810000  0.66920000  0.46330000  1.0
  H  H145  1  0.65280000  0.29370000  0.00110000  1.0
  H  H146  1  0.33800000  0.86850000  0.60860000  1.0
  H  H147  1  0.85640000  0.41160000  0.10610000  1.0
  H  H148  1  0.13280000  0.98130000  0.50710000  1.0
  H  H149  1  0.98110000  0.54210000  0.11670000  1.0
  H  H150  1  0.54510000  0.64170000  0.65900000  1.0
  H  H151  1  0.65050000  0.47690000  0.73860000  1.0
  H  H152  1  0.32620000  0.68690000  0.34590000  1.0
  H  H153  1  0.55570000  0.60550000  0.51370000  1.0
  H  H154  1  0.81270000  0.57710000  0.74310000  1.0
  H  H155  1  0.27340000  0.67160000  0.24780000  1.0
  H  H156  1  0.07620000  0.61620000  0.16330000  1.0
  H  H157  1  0.69800000  0.46260000  0.83770000  1.0
  H  H158  1  0.17550000  0.83120000  0.33460000  1.0
  H  H159  1  0.13240000  0.81550000  0.23530000  1.0
  H  H160  1  0.05370000  0.21220000  0.88670000  1.0
  H  H161  1  0.79690000  0.86530000  0.54720000  1.0
  H  H162  1  0.31940000  0.41270000  0.04300000  1.0
  H  H163  1  0.52320000  0.11590000  0.53410000  1.0
  H  H164  1  0.70030000  0.84360000  0.34970000  1.0
  H  H165  1  0.42410000  0.18390000  0.48220000  1.0
  H  H166  1  0.21470000  0.44140000  0.84670000  1.0
  H  H167  1  0.63490000  0.06290000  0.65890000  1.0
  H  H168  1  0.04190000  0.16920000  0.03670000  1.0
  H  H169  1  0.84720000  0.79370000  0.49890000  1.0
  H  H170  1  0.16200000  0.36850000  0.89140000  1.0
  H  H171  1  0.64360000  0.91160000  0.39390000  1.0
  H  H172  1  0.36720000  0.48130000  0.99290000  1.0
  H  H173  1  0.51890000  0.04210000  0.38330000  1.0
  H  H174  1  0.95490000  0.14170000  0.84100000  1.0
  H  H175  1  0.84950000  0.97690000  0.76140000  1.0
  H  H176  1  0.17380000  0.18690000  0.15410000  1.0
  H  H177  1  0.94430000  0.10550000  0.98630000  1.0
  H  H178  1  0.68730000  0.07710000  0.75690000  1.0
  H  H179  1  0.22660000  0.17160000  0.25220000  1.0
  H  H180  1  0.42380000  0.11620000  0.33670000  1.0
  H  H181  1  0.80200000  0.96260000  0.66230000  1.0
  H  H182  1  0.32450000  0.33120000  0.16540000  1.0
  H  H183  1  0.36760000  0.31550000  0.26470000  1.0
  H  H184  1  0.55370000  0.71220000  0.88670000  1.0
  H  H185  1  0.29690000  0.36530000  0.54720000  1.0
  H  H186  1  0.81940000  0.91270000  0.04300000  1.0
  H  H187  1  0.02320000  0.61590000  0.53410000  1.0
  H  H188  1  0.20030000  0.34360000  0.34970000  1.0
  H  H189  1  0.92410000  0.68390000  0.48220000  1.0
  H  H190  1  0.71470000  0.94140000  0.84670000  1.0
  H  H191  1  0.13490000  0.56290000  0.65890000  1.0
  H  H192  1  0.54190000  0.66920000  0.03670000  1.0
  H  H193  1  0.34720000  0.29370000  0.49890000  1.0
  H  H194  1  0.66200000  0.86850000  0.89140000  1.0
  H  H195  1  0.14360000  0.41160000  0.39390000  1.0
  H  H196  1  0.86720000  0.98130000  0.99290000  1.0
  H  H197  1  0.01890000  0.54210000  0.38330000  1.0
  H  H198  1  0.45490000  0.64170000  0.84100000  1.0
  H  H199  1  0.34950000  0.47690000  0.76140000  1.0
  H  H200  1  0.67380000  0.68690000  0.15410000  1.0
  H  H201  1  0.44430000  0.60550000  0.98630000  1.0
  H  H202  1  0.18730000  0.57710000  0.75690000  1.0
  H  H203  1  0.72660000  0.67160000  0.25220000  1.0
  H  H204  1  0.92380000  0.61620000  0.33670000  1.0
  H  H205  1  0.30200000  0.46260000  0.66230000  1.0
  H  H206  1  0.82450000  0.83120000  0.16540000  1.0
  H  H207  1  0.86760000  0.81550000  0.26470000  1.0
  C  C208  1  0.59760000  0.97180000  0.99860000  1.0
  C  C209  1  0.03240000  0.80910000  0.40820000  1.0
  C  C210  1  0.77620000  0.13870000  0.00700000  1.0
  C  C211  1  0.05970000  0.79950000  0.46710000  1.0
  C  C212  1  0.29730000  0.58330000  0.50290000  1.0
  C  C213  1  0.12280000  0.75560000  0.49930000  1.0
  C  C214  1  0.50350000  0.88570000  0.99390000  1.0
  C  C215  1  0.53260000  0.92790000  0.96440000  1.0
  C  C216  1  0.68150000  0.05240000  0.00440000  1.0
  C  C217  1  0.20930000  0.72510000  0.58510000  1.0
  C  C218  1  0.71370000  0.10170000  0.97500000  1.0
  C  C219  1  0.71960000  0.15250000  0.88980000  1.0
  C  C220  1  0.44350000  0.84500000  0.96200000  1.0
  C  C221  1  0.71170000  0.99170000  0.15000000  1.0
  C  C222  1  0.23480000  0.62080000  0.47200000  1.0
  C  C223  1  0.23570000  0.56450000  0.38670000  1.0
  C  C224  1  0.24260000  0.73630000  0.64880000  1.0
  C  C225  1  0.67870000  0.95540000  0.17920000  1.0
  C  C226  1  0.02490000  0.83420000  0.49660000  1.0
  C  C227  1  0.80630000  0.18120000  0.97760000  1.0
  C  C228  1  0.67940000  0.00250000  0.08480000  1.0
  C  C229  1  0.20410000  0.60930000  0.41330000  1.0
  C  C230  1  0.20470000  0.67120000  0.50200000  1.0
  C  C231  1  0.68550000  0.11050000  0.91620000  1.0
  C  C232  1  0.32490000  0.54090000  0.47250000  1.0
  C  C233  1  0.50110000  0.92860000  0.90450000  1.0
  C  C234  1  0.97250000  0.85100000  0.38090000  1.0
  C  C235  1  0.80590000  0.00460000  0.24030000  1.0
  C  C236  1  0.21350000  0.78600000  0.67560000  1.0
  C  C237  1  0.96680000  0.87230000  0.46600000  1.0
  C  C238  1  0.71070000  0.94630000  0.23790000  1.0
  C  C239  1  0.24520000  0.79370000  0.73460000  1.0
  C  C240  1  0.44310000  0.88540000  0.87700000  1.0
  C  C241  1  0.77740000  0.01520000  0.18080000  1.0
  C  C242  1  0.30200000  0.69980000  0.68200000  1.0
  C  C243  1  0.32780000  0.71080000  0.74180000  1.0
  C  C244  1  0.09760000  0.47180000  0.99860000  1.0
  C  C245  1  0.53240000  0.30910000  0.40820000  1.0
  C  C246  1  0.27620000  0.63870000  0.00700000  1.0
  C  C247  1  0.55970000  0.29950000  0.46710000  1.0
  C  C248  1  0.79730000  0.08330000  0.50290000  1.0
  C  C249  1  0.62280000  0.25560000  0.49930000  1.0
  C  C250  1  0.00350000  0.38570000  0.99390000  1.0
  C  C251  1  0.03260000  0.42790000  0.96440000  1.0
  C  C252  1  0.18150000  0.55240000  0.00440000  1.0
  C  C253  1  0.70930000  0.22510000  0.58510000  1.0
  C  C254  1  0.21370000  0.60170000  0.97500000  1.0
  C  C255  1  0.21960000  0.65250000  0.88980000  1.0
  C  C256  1  0.94350000  0.34500000  0.96200000  1.0
  C  C257  1  0.21170000  0.49170000  0.15000000  1.0
  C  C258  1  0.73480000  0.12080000  0.47200000  1.0
  C  C259  1  0.73570000  0.06450000  0.38670000  1.0
  C  C260  1  0.74260000  0.23630000  0.64880000  1.0
  C  C261  1  0.17870000  0.45540000  0.17920000  1.0
  C  C262  1  0.52490000  0.33420000  0.49660000  1.0
  C  C263  1  0.30630000  0.68120000  0.97760000  1.0
  C  C264  1  0.17940000  0.50250000  0.08480000  1.0
  C  C265  1  0.70410000  0.10930000  0.41330000  1.0
  C  C266  1  0.70470000  0.17120000  0.50200000  1.0
  C  C267  1  0.18550000  0.61050000  0.91620000  1.0
  C  C268  1  0.82490000  0.04090000  0.47250000  1.0
  C  C269  1  0.00110000  0.42860000  0.90450000  1.0
  C  C270  1  0.47250000  0.35100000  0.38090000  1.0
  C  C271  1  0.30590000  0.50460000  0.24030000  1.0
  C  C272  1  0.71350000  0.28600000  0.67560000  1.0
  C  C273  1  0.46680000  0.37230000  0.46600000  1.0
  C  C274  1  0.21070000  0.44630000  0.23790000  1.0
  C  C275  1  0.74520000  0.29370000  0.73460000  1.0
  C  C276  1  0.94310000  0.38540000  0.87700000  1.0
  C  C277  1  0.27740000  0.51520000  0.18080000  1.0
  C  C278  1  0.80200000  0.19980000  0.68200000  1.0
  C  C279  1  0.82780000  0.21080000  0.74180000  1.0
  C  C280  1  0.40240000  0.97180000  0.50140000  1.0
  C  C281  1  0.96760000  0.80910000  0.09180000  1.0
  C  C282  1  0.22380000  0.13870000  0.49300000  1.0
  C  C283  1  0.94030000  0.79950000  0.03290000  1.0
  C  C284  1  0.70270000  0.58330000  0.99710000  1.0
  C  C285  1  0.87720000  0.75560000  0.00070000  1.0
  C  C286  1  0.49650000  0.88570000  0.50610000  1.0
  C  C287  1  0.46740000  0.92790000  0.53560000  1.0
  C  C288  1  0.31850000  0.05240000  0.49560000  1.0
  C  C289  1  0.79070000  0.72510000  0.91490000  1.0
  C  C290  1  0.28630000  0.10170000  0.52500000  1.0
  C  C291  1  0.28040000  0.15250000  0.61020000  1.0
  C  C292  1  0.55650000  0.84500000  0.53800000  1.0
  C  C293  1  0.28830000  0.99170000  0.35000000  1.0
  C  C294  1  0.76520000  0.62080000  0.02800000  1.0
  C  C295  1  0.76430000  0.56450000  0.11330000  1.0
  C  C296  1  0.75740000  0.73630000  0.85120000  1.0
  C  C297  1  0.32130000  0.95540000  0.32080000  1.0
  C  C298  1  0.97510000  0.83420000  0.00340000  1.0
  C  C299  1  0.19370000  0.18120000  0.52240000  1.0
  C  C300  1  0.32060000  0.00250000  0.41520000  1.0
  C  C301  1  0.79590000  0.60930000  0.08670000  1.0
  C  C302  1  0.79530000  0.67120000  0.99800000  1.0
  C  C303  1  0.31450000  0.11050000  0.58380000  1.0
  C  C304  1  0.67510000  0.54090000  0.02750000  1.0
  C  C305  1  0.49890000  0.92860000  0.59550000  1.0
  C  C306  1  0.02750000  0.85100000  0.11910000  1.0
  C  C307  1  0.19410000  0.00460000  0.25970000  1.0
  C  C308  1  0.78650000  0.78600000  0.82440000  1.0
  C  C309  1  0.03320000  0.87230000  0.03400000  1.0
  C  C310  1  0.28930000  0.94630000  0.26210000  1.0
  C  C311  1  0.75480000  0.79370000  0.76540000  1.0
  C  C312  1  0.55690000  0.88540000  0.62300000  1.0
  C  C313  1  0.22260000  0.01520000  0.31920000  1.0
  C  C314  1  0.69800000  0.69980000  0.81800000  1.0
  C  C315  1  0.67220000  0.71080000  0.75820000  1.0
  C  C316  1  0.90240000  0.47180000  0.50140000  1.0
  C  C317  1  0.46760000  0.30910000  0.09180000  1.0
  C  C318  1  0.72380000  0.63870000  0.49300000  1.0
  C  C319  1  0.44030000  0.29950000  0.03290000  1.0
  C  C320  1  0.20270000  0.08330000  0.99710000  1.0
  C  C321  1  0.37720000  0.25560000  0.00070000  1.0
  C  C322  1  0.99650000  0.38570000  0.50610000  1.0
  C  C323  1  0.96740000  0.42790000  0.53560000  1.0
  C  C324  1  0.81850000  0.55240000  0.49560000  1.0
  C  C325  1  0.29070000  0.22510000  0.91490000  1.0
  C  C326  1  0.78630000  0.60170000  0.52500000  1.0
  C  C327  1  0.78040000  0.65250000  0.61020000  1.0
  C  C328  1  0.05650000  0.34500000  0.53800000  1.0
  C  C329  1  0.78830000  0.49170000  0.35000000  1.0
  C  C330  1  0.26520000  0.12080000  0.02800000  1.0
  C  C331  1  0.26430000  0.06450000  0.11330000  1.0
  C  C332  1  0.25740000  0.23630000  0.85120000  1.0
  C  C333  1  0.82130000  0.45540000  0.32080000  1.0
  C  C334  1  0.47510000  0.33420000  0.00340000  1.0
  C  C335  1  0.69370000  0.68120000  0.52240000  1.0
  C  C336  1  0.82060000  0.50250000  0.41520000  1.0
  C  C337  1  0.29590000  0.10930000  0.08670000  1.0
  C  C338  1  0.29530000  0.17120000  0.99800000  1.0
  C  C339  1  0.81450000  0.61050000  0.58380000  1.0
  C  C340  1  0.17510000  0.04090000  0.02750000  1.0
  C  C341  1  0.99890000  0.42860000  0.59550000  1.0
  C  C342  1  0.52750000  0.35100000  0.11910000  1.0
  C  C343  1  0.69410000  0.50460000  0.25970000  1.0
  C  C344  1  0.28650000  0.28600000  0.82440000  1.0
  C  C345  1  0.53320000  0.37230000  0.03400000  1.0
  C  C346  1  0.78930000  0.44630000  0.26210000  1.0
  C  C347  1  0.25480000  0.29370000  0.76540000  1.0
  C  C348  1  0.05690000  0.38540000  0.62300000  1.0
  C  C349  1  0.72260000  0.51520000  0.31920000  1.0
  C  C350  1  0.19800000  0.19980000  0.81800000  1.0
  C  C351  1  0.17220000  0.21080000  0.75820000  1.0
  C  C352  1  0.40240000  0.02820000  0.00140000  1.0
  C  C353  1  0.96760000  0.19090000  0.59180000  1.0
  C  C354  1  0.22380000  0.86130000  0.99300000  1.0
  C  C355  1  0.94030000  0.20050000  0.53290000  1.0
  C  C356  1  0.70270000  0.41670000  0.49710000  1.0
  C  C357  1  0.87720000  0.24440000  0.50070000  1.0
  C  C358  1  0.49650000  0.11430000  0.00610000  1.0
  C  C359  1  0.46740000  0.07210000  0.03560000  1.0
  C  C360  1  0.31850000  0.94760000  0.99560000  1.0
  C  C361  1  0.79070000  0.27490000  0.41490000  1.0
  C  C362  1  0.28630000  0.89830000  0.02500000  1.0
  C  C363  1  0.28040000  0.84750000  0.11020000  1.0
  C  C364  1  0.55650000  0.15500000  0.03800000  1.0
  C  C365  1  0.28830000  0.00830000  0.85000000  1.0
  C  C366  1  0.76520000  0.37920000  0.52800000  1.0
  C  C367  1  0.76430000  0.43550000  0.61330000  1.0
  C  C368  1  0.75740000  0.26370000  0.35120000  1.0
  C  C369  1  0.32130000  0.04460000  0.82080000  1.0
  C  C370  1  0.97510000  0.16580000  0.50340000  1.0
  C  C371  1  0.19370000  0.81880000  0.02240000  1.0
  C  C372  1  0.32060000  0.99750000  0.91520000  1.0
  C  C373  1  0.79590000  0.39070000  0.58670000  1.0
  C  C374  1  0.79530000  0.32880000  0.49800000  1.0
  C  C375  1  0.31450000  0.88950000  0.08380000  1.0
  C  C376  1  0.67510000  0.45910000  0.52750000  1.0
  C  C377  1  0.49890000  0.07140000  0.09550000  1.0
  C  C378  1  0.02750000  0.14900000  0.61910000  1.0
  C  C379  1  0.19410000  0.99540000  0.75970000  1.0
  C  C380  1  0.78650000  0.21400000  0.32440000  1.0
  C  C381  1  0.03320000  0.12770000  0.53400000  1.0
  C  C382  1  0.28930000  0.05370000  0.76210000  1.0
  C  C383  1  0.75480000  0.20630000  0.26540000  1.0
  C  C384  1  0.55690000  0.11460000  0.12300000  1.0
  C  C385  1  0.22260000  0.98480000  0.81920000  1.0
  C  C386  1  0.69800000  0.30020000  0.31800000  1.0
  C  C387  1  0.67220000  0.28920000  0.25820000  1.0
  C  C388  1  0.90240000  0.52820000  0.00140000  1.0
  C  C389  1  0.46760000  0.69090000  0.59180000  1.0
  C  C390  1  0.72380000  0.36130000  0.99300000  1.0
  C  C391  1  0.44030000  0.70050000  0.53290000  1.0
  C  C392  1  0.20270000  0.91670000  0.49710000  1.0
  C  C393  1  0.37720000  0.74440000  0.50070000  1.0
  C  C394  1  0.99650000  0.61430000  0.00610000  1.0
  C  C395  1  0.96740000  0.57210000  0.03560000  1.0
  C  C396  1  0.81850000  0.44760000  0.99560000  1.0
  C  C397  1  0.29070000  0.77490000  0.41490000  1.0
  C  C398  1  0.78630000  0.39830000  0.02500000  1.0
  C  C399  1  0.78040000  0.34750000  0.11020000  1.0
  C  C400  1  0.05650000  0.65500000  0.03800000  1.0
  C  C401  1  0.78830000  0.50830000  0.85000000  1.0
  C  C402  1  0.26520000  0.87920000  0.52800000  1.0
  C  C403  1  0.26430000  0.93550000  0.61330000  1.0
  C  C404  1  0.25740000  0.76370000  0.35120000  1.0
  C  C405  1  0.82130000  0.54460000  0.82080000  1.0
  C  C406  1  0.47510000  0.66580000  0.50340000  1.0
  C  C407  1  0.69370000  0.31880000  0.02240000  1.0
  C  C408  1  0.82060000  0.49750000  0.91520000  1.0
  C  C409  1  0.29590000  0.89070000  0.58670000  1.0
  C  C410  1  0.29530000  0.82880000  0.49800000  1.0
  C  C411  1  0.81450000  0.38950000  0.08380000  1.0
  C  C412  1  0.17510000  0.95910000  0.52750000  1.0
  C  C413  1  0.99890000  0.57140000  0.09550000  1.0
  C  C414  1  0.52750000  0.64900000  0.61910000  1.0
  C  C415  1  0.69410000  0.49540000  0.75970000  1.0
  C  C416  1  0.28650000  0.71400000  0.32440000  1.0
  C  C417  1  0.53320000  0.62770000  0.53400000  1.0
  C  C418  1  0.78930000  0.55370000  0.76210000  1.0
  C  C419  1  0.25480000  0.70630000  0.26540000  1.0
  C  C420  1  0.05690000  0.61460000  0.12300000  1.0
  C  C421  1  0.72260000  0.48480000  0.81920000  1.0
  C  C422  1  0.19800000  0.80020000  0.31800000  1.0
  C  C423  1  0.17220000  0.78920000  0.25820000  1.0
  C  C424  1  0.59760000  0.02820000  0.49860000  1.0
  C  C425  1  0.03240000  0.19090000  0.90820000  1.0
  C  C426  1  0.77620000  0.86130000  0.50700000  1.0
  C  C427  1  0.05970000  0.20050000  0.96710000  1.0
  C  C428  1  0.29730000  0.41670000  0.00290000  1.0
  C  C429  1  0.12280000  0.24440000  0.99930000  1.0
  C  C430  1  0.50350000  0.11430000  0.49390000  1.0
  C  C431  1  0.53260000  0.07210000  0.46440000  1.0
  C  C432  1  0.68150000  0.94760000  0.50440000  1.0
  C  C433  1  0.20930000  0.27490000  0.08510000  1.0
  C  C434  1  0.71370000  0.89830000  0.47500000  1.0
  C  C435  1  0.71960000  0.84750000  0.38980000  1.0
  C  C436  1  0.44350000  0.15500000  0.46200000  1.0
  C  C437  1  0.71170000  0.00830000  0.65000000  1.0
  C  C438  1  0.23480000  0.37920000  0.97200000  1.0
  C  C439  1  0.23570000  0.43550000  0.88670000  1.0
  C  C440  1  0.24260000  0.26370000  0.14880000  1.0
  C  C441  1  0.67870000  0.04460000  0.67920000  1.0
  C  C442  1  0.02490000  0.16580000  0.99660000  1.0
  C  C443  1  0.80630000  0.81880000  0.47760000  1.0
  C  C444  1  0.67940000  0.99750000  0.58480000  1.0
  C  C445  1  0.20410000  0.39070000  0.91330000  1.0
  C  C446  1  0.20470000  0.32880000  0.00200000  1.0
  C  C447  1  0.68550000  0.88950000  0.41620000  1.0
  C  C448  1  0.32490000  0.45910000  0.97250000  1.0
  C  C449  1  0.50110000  0.07140000  0.40450000  1.0
  C  C450  1  0.97250000  0.14900000  0.88090000  1.0
  C  C451  1  0.80590000  0.99540000  0.74030000  1.0
  C  C452  1  0.21350000  0.21400000  0.17560000  1.0
  C  C453  1  0.96680000  0.12770000  0.96600000  1.0
  C  C454  1  0.71070000  0.05370000  0.73790000  1.0
  C  C455  1  0.24520000  0.20630000  0.23460000  1.0
  C  C456  1  0.44310000  0.11460000  0.37700000  1.0
  C  C457  1  0.77740000  0.98480000  0.68080000  1.0
  C  C458  1  0.30200000  0.30020000  0.18200000  1.0
  C  C459  1  0.32780000  0.28920000  0.24180000  1.0
  C  C460  1  0.09760000  0.52820000  0.49860000  1.0
  C  C461  1  0.53240000  0.69090000  0.90820000  1.0
  C  C462  1  0.27620000  0.36130000  0.50700000  1.0
  C  C463  1  0.55970000  0.70050000  0.96710000  1.0
  C  C464  1  0.79730000  0.91670000  0.00290000  1.0
  C  C465  1  0.62280000  0.74440000  0.99930000  1.0
  C  C466  1  0.00350000  0.61430000  0.49390000  1.0
  C  C467  1  0.03260000  0.57210000  0.46440000  1.0
  C  C468  1  0.18150000  0.44760000  0.50440000  1.0
  C  C469  1  0.70930000  0.77490000  0.08510000  1.0
  C  C470  1  0.21370000  0.39830000  0.47500000  1.0
  C  C471  1  0.21960000  0.34750000  0.38980000  1.0
  C  C472  1  0.94350000  0.65500000  0.46200000  1.0
  C  C473  1  0.21170000  0.50830000  0.65000000  1.0
  C  C474  1  0.73480000  0.87920000  0.97200000  1.0
  C  C475  1  0.73570000  0.93550000  0.88670000  1.0
  C  C476  1  0.74260000  0.76370000  0.14880000  1.0
  C  C477  1  0.17870000  0.54460000  0.67920000  1.0
  C  C478  1  0.52490000  0.66580000  0.99660000  1.0
  C  C479  1  0.30630000  0.31880000  0.47760000  1.0
  C  C480  1  0.17940000  0.49750000  0.58480000  1.0
  C  C481  1  0.70410000  0.89070000  0.91330000  1.0
  C  C482  1  0.70470000  0.82880000  0.00200000  1.0
  C  C483  1  0.18550000  0.38950000  0.41620000  1.0
  C  C484  1  0.82490000  0.95910000  0.97250000  1.0
  C  C485  1  0.00110000  0.57140000  0.40450000  1.0
  C  C486  1  0.47250000  0.64900000  0.88090000  1.0
  C  C487  1  0.30590000  0.49540000  0.74030000  1.0
  C  C488  1  0.71350000  0.71400000  0.17560000  1.0
  C  C489  1  0.46680000  0.62770000  0.96600000  1.0
  C  C490  1  0.21070000  0.55370000  0.73790000  1.0
  C  C491  1  0.74520000  0.70630000  0.23460000  1.0
  C  C492  1  0.94310000  0.61460000  0.37700000  1.0
  C  C493  1  0.27740000  0.48480000  0.68080000  1.0
  C  C494  1  0.80200000  0.80020000  0.18200000  1.0
  C  C495  1  0.82780000  0.78920000  0.24180000  1.0
  N  N496  1  0.29510000  0.52950000  0.41580000  1.0
  N  N497  1  0.93940000  0.88070000  0.40940000  1.0
  N  N498  1  0.30040000  0.75510000  0.76800000  1.0
  N  N499  1  0.23680000  0.67730000  0.56000000  1.0
  N  N500  1  0.14760000  0.70950000  0.46970000  1.0
  N  N501  1  0.15230000  0.76550000  0.55660000  1.0
  N  N502  1  0.77920000  0.18760000  0.92010000  1.0
  N  N503  1  0.41270000  0.84530000  0.90480000  1.0
  N  N504  1  0.77510000  0.96980000  0.26950000  1.0
  N  N505  1  0.62490000  0.01350000  0.97050000  1.0
  N  N506  1  0.71070000  0.04900000  0.06250000  1.0
  N  N507  1  0.62230000  0.96230000  0.05610000  1.0
  N  N508  1  0.79510000  0.02950000  0.41580000  1.0
  N  N509  1  0.43940000  0.38070000  0.40940000  1.0
  N  N510  1  0.80040000  0.25510000  0.76800000  1.0
  N  N511  1  0.73680000  0.17730000  0.56000000  1.0
  N  N512  1  0.64760000  0.20950000  0.46970000  1.0
  N  N513  1  0.65230000  0.26550000  0.55660000  1.0
  N  N514  1  0.27920000  0.68760000  0.92010000  1.0
  N  N515  1  0.91270000  0.34530000  0.90480000  1.0
  N  N516  1  0.27510000  0.46980000  0.26950000  1.0
  N  N517  1  0.12490000  0.51350000  0.97050000  1.0
  N  N518  1  0.21070000  0.54900000  0.06250000  1.0
  N  N519  1  0.12230000  0.46230000  0.05610000  1.0
  N  N520  1  0.70490000  0.52950000  0.08420000  1.0
  N  N521  1  0.06060000  0.88070000  0.09060000  1.0
  N  N522  1  0.69960000  0.75510000  0.73200000  1.0
  N  N523  1  0.76320000  0.67730000  0.94000000  1.0
  N  N524  1  0.85240000  0.70950000  0.03030000  1.0
  N  N525  1  0.84770000  0.76550000  0.94340000  1.0
  N  N526  1  0.22080000  0.18760000  0.57990000  1.0
  N  N527  1  0.58730000  0.84530000  0.59520000  1.0
  N  N528  1  0.22490000  0.96980000  0.23050000  1.0
  N  N529  1  0.37510000  0.01350000  0.52950000  1.0
  N  N530  1  0.28930000  0.04900000  0.43750000  1.0
  N  N531  1  0.37770000  0.96230000  0.44390000  1.0
  N  N532  1  0.20490000  0.02950000  0.08420000  1.0
  N  N533  1  0.56060000  0.38070000  0.09060000  1.0
  N  N534  1  0.19960000  0.25510000  0.73200000  1.0
  N  N535  1  0.26320000  0.17730000  0.94000000  1.0
  N  N536  1  0.35240000  0.20950000  0.03030000  1.0
  N  N537  1  0.34770000  0.26550000  0.94340000  1.0
  N  N538  1  0.72080000  0.68760000  0.57990000  1.0
  N  N539  1  0.08730000  0.34530000  0.59520000  1.0
  N  N540  1  0.72490000  0.46980000  0.23050000  1.0
  N  N541  1  0.87510000  0.51350000  0.52950000  1.0
  N  N542  1  0.78930000  0.54900000  0.43750000  1.0
  N  N543  1  0.87770000  0.46230000  0.44390000  1.0
  N  N544  1  0.70490000  0.47050000  0.58420000  1.0
  N  N545  1  0.06060000  0.11930000  0.59060000  1.0
  N  N546  1  0.69960000  0.24490000  0.23200000  1.0
  N  N547  1  0.76320000  0.32270000  0.44000000  1.0
  N  N548  1  0.85240000  0.29050000  0.53030000  1.0
  N  N549  1  0.84770000  0.23450000  0.44340000  1.0
  N  N550  1  0.22080000  0.81240000  0.07990000  1.0
  N  N551  1  0.58730000  0.15470000  0.09520000  1.0
  N  N552  1  0.22490000  0.03020000  0.73050000  1.0
  N  N553  1  0.37510000  0.98650000  0.02950000  1.0
  N  N554  1  0.28930000  0.95100000  0.93750000  1.0
  N  N555  1  0.37770000  0.03770000  0.94390000  1.0
  N  N556  1  0.20490000  0.97050000  0.58420000  1.0
  N  N557  1  0.56060000  0.61930000  0.59060000  1.0
  N  N558  1  0.19960000  0.74490000  0.23200000  1.0
  N  N559  1  0.26320000  0.82270000  0.44000000  1.0
  N  N560  1  0.35240000  0.79050000  0.53030000  1.0
  N  N561  1  0.34770000  0.73450000  0.44340000  1.0
  N  N562  1  0.72080000  0.31240000  0.07990000  1.0
  N  N563  1  0.08730000  0.65470000  0.09520000  1.0
  N  N564  1  0.72490000  0.53020000  0.73050000  1.0
  N  N565  1  0.87510000  0.48650000  0.02950000  1.0
  N  N566  1  0.78930000  0.45100000  0.93750000  1.0
  N  N567  1  0.87770000  0.53770000  0.94390000  1.0
  N  N568  1  0.29510000  0.47050000  0.91580000  1.0
  N  N569  1  0.93940000  0.11930000  0.90940000  1.0
  N  N570  1  0.30040000  0.24490000  0.26800000  1.0
  N  N571  1  0.23680000  0.32270000  0.06000000  1.0
  N  N572  1  0.14760000  0.29050000  0.96970000  1.0
  N  N573  1  0.15230000  0.23450000  0.05660000  1.0
  N  N574  1  0.77920000  0.81240000  0.42010000  1.0
  N  N575  1  0.41270000  0.15470000  0.40480000  1.0
  N  N576  1  0.77510000  0.03020000  0.76950000  1.0
  N  N577  1  0.62490000  0.98650000  0.47050000  1.0
  N  N578  1  0.71070000  0.95100000  0.56250000  1.0
  N  N579  1  0.62230000  0.03770000  0.55610000  1.0
  N  N580  1  0.79510000  0.97050000  0.91580000  1.0
  N  N581  1  0.43940000  0.61930000  0.90940000  1.0
  N  N582  1  0.80040000  0.74490000  0.26800000  1.0
  N  N583  1  0.73680000  0.82270000  0.06000000  1.0
  N  N584  1  0.64760000  0.79050000  0.96970000  1.0
  N  N585  1  0.65230000  0.73450000  0.05660000  1.0
  N  N586  1  0.27920000  0.31240000  0.42010000  1.0
  N  N587  1  0.91270000  0.65470000  0.40480000  1.0
  N  N588  1  0.27510000  0.53020000  0.76950000  1.0
  N  N589  1  0.12490000  0.48650000  0.47050000  1.0
  N  N590  1  0.21070000  0.45100000  0.56250000  1.0
  N  N591  1  0.12230000  0.53770000  0.55610000  1.0
