# generated using pymatgen
data_TmH3(CO2)3
_symmetry_space_group_name_H-M   'P 1'
_cell_length_a   11.17200000
_cell_length_b   7.10200000
_cell_length_c   6.53900000
_cell_angle_alpha   90.00000000
_cell_angle_beta   109.47200000
_cell_angle_gamma   90.00000000
_symmetry_Int_Tables_number   1
_chemical_formula_structural   TmH3(CO2)3
_chemical_formula_sum   'Tm2 H6 C6 O12'
_cell_volume   489.15284351
_cell_formula_units_Z   2
loop_
 _symmetry_equiv_pos_site_id
 _symmetry_equiv_pos_as_xyz
  1  'x, y, z'
loop_
 _atom_site_type_symbol
 _atom_site_label
 _atom_site_symmetry_multiplicity
 _atom_site_fract_x
 _atom_site_fract_y
 _atom_site_fract_z
 _atom_site_occupancy
  Tm  Tm0  1  0.50000000  0.95252000  0.00000000  1.0
  Tm  Tm1  1  0.00000000  0.45252000  0.00000000  1.0
  H  H2  1  0.69530000  0.28980000  0.89290000  1.0
  H  H3  1  0.19530000  0.78980000  0.89290000  1.0
  H  H4  1  0.30470000  0.28980000  0.10710000  1.0
  H  H5  1  0.80470000  0.78980000  0.10710000  1.0
  H  H6  1  0.50000000  0.88520000  0.50000000  1.0
  H  H7  1  0.00000000  0.38520000  0.50000000  1.0
  C  C8  1  0.73560000  0.24720000  0.03360000  1.0
  C  C9  1  0.23560000  0.74720000  0.03360000  1.0
  C  C10  1  0.26440000  0.24720000  0.96640000  1.0
  C  C11  1  0.76440000  0.74720000  0.96640000  1.0
  C  C12  1  0.50000000  0.01620000  0.50000000  1.0
  C  C13  1  0.00000000  0.51620000  0.50000000  1.0
  O  O14  1  0.50710000  0.09830000  0.33460000  1.0
  O  O15  1  0.67040000  0.14870000  0.11470000  1.0
  O  O16  1  0.84610000  0.29360000  0.11820000  1.0
  O  O17  1  0.00710000  0.59830000  0.33460000  1.0
  O  O18  1  0.17040000  0.64870000  0.11470000  1.0
  O  O19  1  0.34610000  0.79360000  0.11820000  1.0
  O  O20  1  0.49290000  0.09830000  0.66540000  1.0
  O  O21  1  0.32960000  0.14870000  0.88530000  1.0
  O  O22  1  0.15390000  0.29360000  0.88180000  1.0
  O  O23  1  0.99290000  0.59830000  0.66540000  1.0
  O  O24  1  0.82960000  0.64870000  0.88530000  1.0
  O  O25  1  0.65390000  0.79360000  0.88180000  1.0
