# generated using pymatgen
data_HoH4(CO2)4
_symmetry_space_group_name_H-M   'P 1'
_cell_length_a   6.66670000
_cell_length_b   18.40800000
_cell_length_c   8.44680000
_cell_angle_alpha   90.00000000
_cell_angle_beta   90.00000000
_cell_angle_gamma   90.00000000
_symmetry_Int_Tables_number   1
_chemical_formula_structural   HoH4(CO2)4
_chemical_formula_sum   'Ho4 H16 C16 O32'
_cell_volume   1036.59647896
_cell_formula_units_Z   4
loop_
 _symmetry_equiv_pos_site_id
 _symmetry_equiv_pos_as_xyz
  1  'x, y, z'
loop_
 _atom_site_type_symbol
 _atom_site_label
 _atom_site_symmetry_multiplicity
 _atom_site_fract_x
 _atom_site_fract_y
 _atom_site_fract_z
 _atom_site_occupancy
  Ho  Ho0  1  0.00000000  0.64269000  0.25000000  1.0
  Ho  Ho1  1  0.50000000  0.14269000  0.25000000  1.0
  Ho  Ho2  1  0.00000000  0.35731000  0.75000000  1.0
  Ho  Ho3  1  0.50000000  0.85731000  0.75000000  1.0
  H  H4  1  0.78300000  0.78190000  0.45530000  1.0
  H  H5  1  0.28300000  0.28190000  0.45530000  1.0
  H  H6  1  0.21700000  0.21810000  0.95530000  1.0
  H  H7  1  0.71700000  0.71810000  0.95530000  1.0
  H  H8  1  0.21700000  0.78190000  0.04470000  1.0
  H  H9  1  0.71700000  0.28190000  0.04470000  1.0
  H  H10  1  0.78300000  0.21810000  0.54470000  1.0
  H  H11  1  0.28300000  0.71810000  0.54470000  1.0
  H  H12  1  0.50000000  0.67620000  0.25000000  1.0
  H  H13  1  0.00000000  0.17620000  0.25000000  1.0
  H  H14  1  0.50000000  0.32380000  0.75000000  1.0
  H  H15  1  0.00000000  0.82380000  0.75000000  1.0
  H  H16  1  0.78580000  0.50000000  0.00000000  1.0
  H  H17  1  0.28580000  0.00000000  0.00000000  1.0
  H  H18  1  0.21420000  0.50000000  0.50000000  1.0
  H  H19  1  0.71420000  0.00000000  0.50000000  1.0
  C  C20  1  0.76410000  0.74340000  0.52520000  1.0
  C  C21  1  0.26410000  0.24340000  0.52520000  1.0
  C  C22  1  0.23590000  0.25660000  0.02520000  1.0
  C  C23  1  0.73590000  0.75660000  0.02520000  1.0
  C  C24  1  0.23590000  0.74340000  0.97480000  1.0
  C  C25  1  0.73590000  0.24340000  0.97480000  1.0
  C  C26  1  0.76410000  0.25660000  0.47480000  1.0
  C  C27  1  0.26410000  0.75660000  0.47480000  1.0
  C  C28  1  0.50000000  0.62560000  0.25000000  1.0
  C  C29  1  0.00000000  0.12560000  0.25000000  1.0
  C  C30  1  0.50000000  0.37440000  0.75000000  1.0
  C  C31  1  0.00000000  0.87440000  0.75000000  1.0
  C  C32  1  0.92530000  0.50000000  0.00000000  1.0
  C  C33  1  0.42530000  0.00000000  0.00000000  1.0
  C  C34  1  0.07470000  0.50000000  0.50000000  1.0
  C  C35  1  0.57470000  0.00000000  0.50000000  1.0
  O  O36  1  0.01270000  0.54980000  0.06960000  1.0
  O  O37  1  0.66480000  0.59460000  0.22830000  1.0
  O  O38  1  0.68040000  0.75780000  0.65220000  1.0
  O  O39  1  0.82490000  0.68340000  0.48180000  1.0
  O  O40  1  0.51270000  0.04980000  0.06960000  1.0
  O  O41  1  0.16480000  0.09460000  0.22830000  1.0
  O  O42  1  0.18040000  0.25780000  0.65220000  1.0
  O  O43  1  0.32490000  0.18340000  0.48180000  1.0
  O  O44  1  0.98730000  0.45020000  0.56960000  1.0
  O  O45  1  0.33520000  0.40540000  0.72830000  1.0
  O  O46  1  0.31960000  0.24220000  0.15220000  1.0
  O  O47  1  0.17510000  0.31660000  0.98180000  1.0
  O  O48  1  0.48730000  0.95020000  0.56960000  1.0
  O  O49  1  0.83520000  0.90540000  0.72830000  1.0
  O  O50  1  0.81960000  0.74220000  0.15220000  1.0
  O  O51  1  0.67510000  0.81660000  0.98180000  1.0
  O  O52  1  0.98730000  0.54980000  0.43040000  1.0
  O  O53  1  0.33520000  0.59460000  0.27170000  1.0
  O  O54  1  0.31960000  0.75780000  0.84780000  1.0
  O  O55  1  0.17510000  0.68340000  0.01820000  1.0
  O  O56  1  0.48730000  0.04980000  0.43040000  1.0
  O  O57  1  0.83520000  0.09460000  0.27170000  1.0
  O  O58  1  0.81960000  0.25780000  0.84780000  1.0
  O  O59  1  0.67510000  0.18340000  0.01820000  1.0
  O  O60  1  0.01270000  0.45020000  0.93040000  1.0
  O  O61  1  0.66480000  0.40540000  0.77170000  1.0
  O  O62  1  0.68040000  0.24220000  0.34780000  1.0
  O  O63  1  0.82490000  0.31660000  0.51820000  1.0
  O  O64  1  0.51270000  0.95020000  0.93040000  1.0
  O  O65  1  0.16480000  0.90540000  0.77170000  1.0
  O  O66  1  0.18040000  0.74220000  0.34780000  1.0
  O  O67  1  0.32490000  0.81660000  0.51820000  1.0
