# generated using pymatgen
data_Zn3Mo10H26C24(N9O10)2
_symmetry_space_group_name_H-M   'P 1'
_cell_length_a   26.77410000
_cell_length_b   10.05350000
_cell_length_c   22.08650000
_cell_angle_alpha   90.00000000
_cell_angle_beta   97.27500000
_cell_angle_gamma   90.00000000
_symmetry_Int_Tables_number   1
_chemical_formula_structural   Zn3Mo10H26C24(N9O10)2
_chemical_formula_sum   'Zn12 Mo40 H104 C96 N72 O80'
_cell_volume   5897.23932705
_cell_formula_units_Z   4
loop_
 _symmetry_equiv_pos_site_id
 _symmetry_equiv_pos_as_xyz
  1  'x, y, z'
loop_
 _atom_site_type_symbol
 _atom_site_label
 _atom_site_symmetry_multiplicity
 _atom_site_fract_x
 _atom_site_fract_y
 _atom_site_fract_z
 _atom_site_occupancy
  Zn  Zn0  1  0.10045000  0.66797000  0.49271000  1.0
  Zn  Zn1  1  0.60045000  0.16797000  0.49271000  1.0
  Zn  Zn2  1  0.89955000  0.66797000  0.00729000  1.0
  Zn  Zn3  1  0.39955000  0.16797000  0.00729000  1.0
  Zn  Zn4  1  0.89955000  0.33203000  0.50729000  1.0
  Zn  Zn5  1  0.39955000  0.83203000  0.50729000  1.0
  Zn  Zn6  1  0.10045000  0.33203000  0.99271000  1.0
  Zn  Zn7  1  0.60045000  0.83203000  0.99271000  1.0
  Zn  Zn8  1  0.50000000  0.50000000  0.50000000  1.0
  Zn  Zn9  1  0.00000000  0.00000000  0.50000000  1.0
  Zn  Zn10  1  0.50000000  0.50000000  0.00000000  1.0
  Zn  Zn11  1  0.00000000  0.00000000  0.00000000  1.0
  Mo  Mo12  1  0.20130000  0.47477000  0.43740000  1.0
  Mo  Mo13  1  0.30752000  0.54722000  0.51933000  1.0
  Mo  Mo14  1  0.39159000  0.31742000  0.55436000  1.0
  Mo  Mo15  1  0.29442000  0.23590000  0.45034000  1.0
  Mo  Mo16  1  0.47626000  0.13720000  0.47173000  1.0
  Mo  Mo17  1  0.70130000  0.97477000  0.43740000  1.0
  Mo  Mo18  1  0.80752000  0.04722000  0.51933000  1.0
  Mo  Mo19  1  0.89159000  0.81742000  0.55436000  1.0
  Mo  Mo20  1  0.79442000  0.73590000  0.45034000  1.0
  Mo  Mo21  1  0.97626000  0.63720000  0.47173000  1.0
  Mo  Mo22  1  0.79870000  0.47477000  0.06260000  1.0
  Mo  Mo23  1  0.69248000  0.54722000  0.98067000  1.0
  Mo  Mo24  1  0.60841000  0.31742000  0.94564000  1.0
  Mo  Mo25  1  0.70558000  0.23590000  0.04966000  1.0
  Mo  Mo26  1  0.52374000  0.13720000  0.02827000  1.0
  Mo  Mo27  1  0.29870000  0.97477000  0.06260000  1.0
  Mo  Mo28  1  0.19248000  0.04722000  0.98067000  1.0
  Mo  Mo29  1  0.10841000  0.81742000  0.94564000  1.0
  Mo  Mo30  1  0.20558000  0.73590000  0.04966000  1.0
  Mo  Mo31  1  0.02374000  0.63720000  0.02827000  1.0
  Mo  Mo32  1  0.79870000  0.52523000  0.56260000  1.0
  Mo  Mo33  1  0.69248000  0.45278000  0.48067000  1.0
  Mo  Mo34  1  0.60841000  0.68258000  0.44564000  1.0
  Mo  Mo35  1  0.70558000  0.76410000  0.54966000  1.0
  Mo  Mo36  1  0.52374000  0.86280000  0.52827000  1.0
  Mo  Mo37  1  0.29870000  0.02523000  0.56260000  1.0
  Mo  Mo38  1  0.19248000  0.95278000  0.48067000  1.0
  Mo  Mo39  1  0.10841000  0.18258000  0.44564000  1.0
  Mo  Mo40  1  0.20558000  0.26410000  0.54966000  1.0
  Mo  Mo41  1  0.02374000  0.36280000  0.52827000  1.0
  Mo  Mo42  1  0.20130000  0.52523000  0.93740000  1.0
  Mo  Mo43  1  0.30752000  0.45278000  0.01933000  1.0
  Mo  Mo44  1  0.39159000  0.68258000  0.05436000  1.0
  Mo  Mo45  1  0.29442000  0.76410000  0.95034000  1.0
  Mo  Mo46  1  0.47626000  0.86280000  0.97173000  1.0
  Mo  Mo47  1  0.70130000  0.02523000  0.93740000  1.0
  Mo  Mo48  1  0.80752000  0.95278000  0.01933000  1.0
  Mo  Mo49  1  0.89159000  0.18258000  0.05436000  1.0
  Mo  Mo50  1  0.79442000  0.26410000  0.95034000  1.0
  Mo  Mo51  1  0.97626000  0.36280000  0.97173000  1.0
  H  H52  1  0.03090000  0.33560000  0.71770000  1.0
  H  H53  1  0.08320000  0.40840000  0.72590000  1.0
  H  H54  1  0.07360000  0.48490000  0.86560000  1.0
  H  H55  1  0.08450000  0.10460000  0.88800000  1.0
  H  H56  1  0.12380000  0.71690000  0.77040000  1.0
  H  H57  1  0.12190000  0.56190000  0.76170000  1.0
  H  H58  1  0.05800000  0.62670000  0.62440000  1.0
  H  H59  1  0.19240000  0.71340000  0.59280000  1.0
  H  H60  1  0.03770000  0.96450000  0.76790000  1.0
  H  H61  1  0.08810000  0.88530000  0.76650000  1.0
  H  H62  1  0.99270000  0.88320000  0.63310000  1.0
  H  H63  1  0.10330000  0.08990000  0.58850000  1.0
  H  H64  1  0.12230000  0.03660000  0.69230000  1.0
  H  H65  1  0.53090000  0.83560000  0.71770000  1.0
  H  H66  1  0.58320000  0.90840000  0.72590000  1.0
  H  H67  1  0.57360000  0.98490000  0.86560000  1.0
  H  H68  1  0.58450000  0.60460000  0.88800000  1.0
  H  H69  1  0.62380000  0.21690000  0.77040000  1.0
  H  H70  1  0.62190000  0.06190000  0.76170000  1.0
  H  H71  1  0.55800000  0.12670000  0.62440000  1.0
  H  H72  1  0.69240000  0.21340000  0.59280000  1.0
  H  H73  1  0.53770000  0.46450000  0.76790000  1.0
  H  H74  1  0.58810000  0.38530000  0.76650000  1.0
  H  H75  1  0.49270000  0.38320000  0.63310000  1.0
  H  H76  1  0.60330000  0.58990000  0.58850000  1.0
  H  H77  1  0.62230000  0.53660000  0.69230000  1.0
  H  H78  1  0.96910000  0.33560000  0.78230000  1.0
  H  H79  1  0.91680000  0.40840000  0.77410000  1.0
  H  H80  1  0.92640000  0.48490000  0.63440000  1.0
  H  H81  1  0.91550000  0.10460000  0.61200000  1.0
  H  H82  1  0.87620000  0.71690000  0.72960000  1.0
  H  H83  1  0.87810000  0.56190000  0.73830000  1.0
  H  H84  1  0.94200000  0.62670000  0.87560000  1.0
  H  H85  1  0.80760000  0.71340000  0.90720000  1.0
  H  H86  1  0.96230000  0.96450000  0.73210000  1.0
  H  H87  1  0.91190000  0.88530000  0.73350000  1.0
  H  H88  1  0.00730000  0.88320000  0.86690000  1.0
  H  H89  1  0.89670000  0.08990000  0.91150000  1.0
  H  H90  1  0.87770000  0.03660000  0.80770000  1.0
  H  H91  1  0.46910000  0.83560000  0.78230000  1.0
  H  H92  1  0.41680000  0.90840000  0.77410000  1.0
  H  H93  1  0.42640000  0.98490000  0.63440000  1.0
  H  H94  1  0.41550000  0.60460000  0.61200000  1.0
  H  H95  1  0.37620000  0.21690000  0.72960000  1.0
  H  H96  1  0.37810000  0.06190000  0.73830000  1.0
  H  H97  1  0.44200000  0.12670000  0.87560000  1.0
  H  H98  1  0.30760000  0.21340000  0.90720000  1.0
  H  H99  1  0.46230000  0.46450000  0.73210000  1.0
  H  H100  1  0.41190000  0.38530000  0.73350000  1.0
  H  H101  1  0.50730000  0.38320000  0.86690000  1.0
  H  H102  1  0.39670000  0.58990000  0.91150000  1.0
  H  H103  1  0.37770000  0.53660000  0.80770000  1.0
  H  H104  1  0.96910000  0.66440000  0.28230000  1.0
  H  H105  1  0.91680000  0.59160000  0.27410000  1.0
  H  H106  1  0.92640000  0.51510000  0.13440000  1.0
  H  H107  1  0.91550000  0.89540000  0.11200000  1.0
  H  H108  1  0.87620000  0.28310000  0.22960000  1.0
  H  H109  1  0.87810000  0.43810000  0.23830000  1.0
  H  H110  1  0.94200000  0.37330000  0.37560000  1.0
  H  H111  1  0.80760000  0.28660000  0.40720000  1.0
  H  H112  1  0.96230000  0.03550000  0.23210000  1.0
  H  H113  1  0.91190000  0.11470000  0.23350000  1.0
  H  H114  1  0.00730000  0.11680000  0.36690000  1.0
  H  H115  1  0.89670000  0.91010000  0.41150000  1.0
  H  H116  1  0.87770000  0.96340000  0.30770000  1.0
  H  H117  1  0.46910000  0.16440000  0.28230000  1.0
  H  H118  1  0.41680000  0.09160000  0.27410000  1.0
  H  H119  1  0.42640000  0.01510000  0.13440000  1.0
  H  H120  1  0.41550000  0.39540000  0.11200000  1.0
  H  H121  1  0.37620000  0.78310000  0.22960000  1.0
  H  H122  1  0.37810000  0.93810000  0.23830000  1.0
  H  H123  1  0.44200000  0.87330000  0.37560000  1.0
  H  H124  1  0.30760000  0.78660000  0.40720000  1.0
  H  H125  1  0.46230000  0.53550000  0.23210000  1.0
  H  H126  1  0.41190000  0.61470000  0.23350000  1.0
  H  H127  1  0.50730000  0.61680000  0.36690000  1.0
  H  H128  1  0.39670000  0.41010000  0.41150000  1.0
  H  H129  1  0.37770000  0.46340000  0.30770000  1.0
  H  H130  1  0.03090000  0.66440000  0.21770000  1.0
  H  H131  1  0.08320000  0.59160000  0.22590000  1.0
  H  H132  1  0.07360000  0.51510000  0.36560000  1.0
  H  H133  1  0.08450000  0.89540000  0.38800000  1.0
  H  H134  1  0.12380000  0.28310000  0.27040000  1.0
  H  H135  1  0.12190000  0.43810000  0.26170000  1.0
  H  H136  1  0.05800000  0.37330000  0.12440000  1.0
  H  H137  1  0.19240000  0.28660000  0.09280000  1.0
  H  H138  1  0.03770000  0.03550000  0.26790000  1.0
  H  H139  1  0.08810000  0.11470000  0.26650000  1.0
  H  H140  1  0.99270000  0.11680000  0.13310000  1.0
  H  H141  1  0.10330000  0.91010000  0.08850000  1.0
  H  H142  1  0.12230000  0.96340000  0.19230000  1.0
  H  H143  1  0.53090000  0.16440000  0.21770000  1.0
  H  H144  1  0.58320000  0.09160000  0.22590000  1.0
  H  H145  1  0.57360000  0.01510000  0.36560000  1.0
  H  H146  1  0.58450000  0.39540000  0.38800000  1.0
  H  H147  1  0.62380000  0.78310000  0.27040000  1.0
  H  H148  1  0.62190000  0.93810000  0.26170000  1.0
  H  H149  1  0.55800000  0.87330000  0.12440000  1.0
  H  H150  1  0.69240000  0.78660000  0.09280000  1.0
  H  H151  1  0.53770000  0.53550000  0.26790000  1.0
  H  H152  1  0.58810000  0.61470000  0.26650000  1.0
  H  H153  1  0.49270000  0.61680000  0.13310000  1.0
  H  H154  1  0.60330000  0.41010000  0.08850000  1.0
  H  H155  1  0.62230000  0.46340000  0.19230000  1.0
  C  C156  1  0.02615000  0.52680000  0.74770000  1.0
  C  C157  1  0.05180000  0.64770000  0.74670000  1.0
  C  C158  1  0.02572000  0.76760000  0.74790000  1.0
  C  C159  1  0.05230000  0.39560000  0.74380000  1.0
  C  C160  1  0.07366000  0.39380000  0.85860000  1.0
  C  C161  1  0.07910000  0.18740000  0.86960000  1.0
  C  C162  1  0.10820000  0.64560000  0.74510000  1.0
  C  C163  1  0.09203000  0.64860000  0.62940000  1.0
  C  C164  1  0.16500000  0.69460000  0.61340000  1.0
  C  C165  1  0.05410000  0.89680000  0.74610000  1.0
  C  C166  1  0.02310000  0.92870000  0.63450000  1.0
  C  C167  1  0.08310000  0.04010000  0.61120000  1.0
  C  C168  1  0.52615000  0.02680000  0.74770000  1.0
  C  C169  1  0.55180000  0.14770000  0.74670000  1.0
  C  C170  1  0.52572000  0.26760000  0.74790000  1.0
  C  C171  1  0.55230000  0.89560000  0.74380000  1.0
  C  C172  1  0.57366000  0.89380000  0.85860000  1.0
  C  C173  1  0.57910000  0.68740000  0.86960000  1.0
  C  C174  1  0.60820000  0.14560000  0.74510000  1.0
  C  C175  1  0.59203000  0.14860000  0.62940000  1.0
  C  C176  1  0.66500000  0.19460000  0.61340000  1.0
  C  C177  1  0.55410000  0.39680000  0.74610000  1.0
  C  C178  1  0.52310000  0.42870000  0.63450000  1.0
  C  C179  1  0.58310000  0.54010000  0.61120000  1.0
  C  C180  1  0.97385000  0.52680000  0.75230000  1.0
  C  C181  1  0.94820000  0.64770000  0.75330000  1.0
  C  C182  1  0.97428000  0.76760000  0.75210000  1.0
  C  C183  1  0.94770000  0.39560000  0.75620000  1.0
  C  C184  1  0.92634000  0.39380000  0.64140000  1.0
  C  C185  1  0.92090000  0.18740000  0.63040000  1.0
  C  C186  1  0.89180000  0.64560000  0.75490000  1.0
  C  C187  1  0.90797000  0.64860000  0.87060000  1.0
  C  C188  1  0.83500000  0.69460000  0.88660000  1.0
  C  C189  1  0.94590000  0.89680000  0.75390000  1.0
  C  C190  1  0.97690000  0.92870000  0.86550000  1.0
  C  C191  1  0.91690000  0.04010000  0.88880000  1.0
  C  C192  1  0.47385000  0.02680000  0.75230000  1.0
  C  C193  1  0.44820000  0.14770000  0.75330000  1.0
  C  C194  1  0.47428000  0.26760000  0.75210000  1.0
  C  C195  1  0.44770000  0.89560000  0.75620000  1.0
  C  C196  1  0.42634000  0.89380000  0.64140000  1.0
  C  C197  1  0.42090000  0.68740000  0.63040000  1.0
  C  C198  1  0.39180000  0.14560000  0.75490000  1.0
  C  C199  1  0.40797000  0.14860000  0.87060000  1.0
  C  C200  1  0.33500000  0.19460000  0.88660000  1.0
  C  C201  1  0.44590000  0.39680000  0.75390000  1.0
  C  C202  1  0.47690000  0.42870000  0.86550000  1.0
  C  C203  1  0.41690000  0.54010000  0.88880000  1.0
  C  C204  1  0.97385000  0.47320000  0.25230000  1.0
  C  C205  1  0.94820000  0.35230000  0.25330000  1.0
  C  C206  1  0.97428000  0.23240000  0.25210000  1.0
  C  C207  1  0.94770000  0.60440000  0.25620000  1.0
  C  C208  1  0.92634000  0.60620000  0.14140000  1.0
  C  C209  1  0.92090000  0.81260000  0.13040000  1.0
  C  C210  1  0.89180000  0.35440000  0.25490000  1.0
  C  C211  1  0.90797000  0.35140000  0.37060000  1.0
  C  C212  1  0.83500000  0.30540000  0.38660000  1.0
  C  C213  1  0.94590000  0.10320000  0.25390000  1.0
  C  C214  1  0.97690000  0.07130000  0.36550000  1.0
  C  C215  1  0.91690000  0.95990000  0.38880000  1.0
  C  C216  1  0.47385000  0.97320000  0.25230000  1.0
  C  C217  1  0.44820000  0.85230000  0.25330000  1.0
  C  C218  1  0.47428000  0.73240000  0.25210000  1.0
  C  C219  1  0.44770000  0.10440000  0.25620000  1.0
  C  C220  1  0.42634000  0.10620000  0.14140000  1.0
  C  C221  1  0.42090000  0.31260000  0.13040000  1.0
  C  C222  1  0.39180000  0.85440000  0.25490000  1.0
  C  C223  1  0.40797000  0.85140000  0.37060000  1.0
  C  C224  1  0.33500000  0.80540000  0.38660000  1.0
  C  C225  1  0.44590000  0.60320000  0.25390000  1.0
  C  C226  1  0.47690000  0.57130000  0.36550000  1.0
  C  C227  1  0.41690000  0.45990000  0.38880000  1.0
  C  C228  1  0.02615000  0.47320000  0.24770000  1.0
  C  C229  1  0.05180000  0.35230000  0.24670000  1.0
  C  C230  1  0.02572000  0.23240000  0.24790000  1.0
  C  C231  1  0.05230000  0.60440000  0.24380000  1.0
  C  C232  1  0.07366000  0.60620000  0.35860000  1.0
  C  C233  1  0.07910000  0.81260000  0.36960000  1.0
  C  C234  1  0.10820000  0.35440000  0.24510000  1.0
  C  C235  1  0.09203000  0.35140000  0.12940000  1.0
  C  C236  1  0.16500000  0.30540000  0.11340000  1.0
  C  C237  1  0.05410000  0.10320000  0.24610000  1.0
  C  C238  1  0.02310000  0.07130000  0.13450000  1.0
  C  C239  1  0.08310000  0.95990000  0.11120000  1.0
  C  C240  1  0.52615000  0.97320000  0.24770000  1.0
  C  C241  1  0.55180000  0.85230000  0.24670000  1.0
  C  C242  1  0.52572000  0.73240000  0.24790000  1.0
  C  C243  1  0.55230000  0.10440000  0.24380000  1.0
  C  C244  1  0.57366000  0.10620000  0.35860000  1.0
  C  C245  1  0.57910000  0.31260000  0.36960000  1.0
  C  C246  1  0.60820000  0.85440000  0.24510000  1.0
  C  C247  1  0.59203000  0.85140000  0.12940000  1.0
  C  C248  1  0.66500000  0.80540000  0.11340000  1.0
  C  C249  1  0.55410000  0.60320000  0.24610000  1.0
  C  C250  1  0.52310000  0.57130000  0.13450000  1.0
  C  C251  1  0.58310000  0.45990000  0.11120000  1.0
  N  N252  1  0.08352000  0.30220000  0.90101000  1.0
  N  N253  1  0.06386000  0.33730000  0.80470000  1.0
  N  N254  1  0.06655000  0.20220000  0.81070000  1.0
  N  N255  1  0.11856000  0.67110000  0.58476000  1.0
  N  N256  1  0.12017000  0.66140000  0.68260000  1.0
  N  N257  1  0.16813000  0.68860000  0.67360000  1.0
  N  N258  1  0.03876000  0.98940000  0.58760000  1.0
  N  N259  1  0.05612000  0.94100000  0.68348000  1.0
  N  N260  1  0.09550000  0.01350000  0.66900000  1.0
  N  N261  1  0.58352000  0.80220000  0.90101000  1.0
  N  N262  1  0.56386000  0.83730000  0.80470000  1.0
  N  N263  1  0.56655000  0.70220000  0.81070000  1.0
  N  N264  1  0.61856000  0.17110000  0.58476000  1.0
  N  N265  1  0.62017000  0.16140000  0.68260000  1.0
  N  N266  1  0.66813000  0.18860000  0.67360000  1.0
  N  N267  1  0.53876000  0.48940000  0.58760000  1.0
  N  N268  1  0.55612000  0.44100000  0.68348000  1.0
  N  N269  1  0.59550000  0.51350000  0.66900000  1.0
  N  N270  1  0.91648000  0.30220000  0.59899000  1.0
  N  N271  1  0.93614000  0.33730000  0.69530000  1.0
  N  N272  1  0.93345000  0.20220000  0.68930000  1.0
  N  N273  1  0.88144000  0.67110000  0.91524000  1.0
  N  N274  1  0.87983000  0.66140000  0.81740000  1.0
  N  N275  1  0.83187000  0.68860000  0.82640000  1.0
  N  N276  1  0.96124000  0.98940000  0.91240000  1.0
  N  N277  1  0.94388000  0.94100000  0.81652000  1.0
  N  N278  1  0.90450000  0.01350000  0.83100000  1.0
  N  N279  1  0.41648000  0.80220000  0.59899000  1.0
  N  N280  1  0.43614000  0.83730000  0.69530000  1.0
  N  N281  1  0.43345000  0.70220000  0.68930000  1.0
  N  N282  1  0.38144000  0.17110000  0.91524000  1.0
  N  N283  1  0.37983000  0.16140000  0.81740000  1.0
  N  N284  1  0.33187000  0.18860000  0.82640000  1.0
  N  N285  1  0.46124000  0.48940000  0.91240000  1.0
  N  N286  1  0.44388000  0.44100000  0.81652000  1.0
  N  N287  1  0.40450000  0.51350000  0.83100000  1.0
  N  N288  1  0.91648000  0.69780000  0.09899000  1.0
  N  N289  1  0.93614000  0.66270000  0.19530000  1.0
  N  N290  1  0.93345000  0.79780000  0.18930000  1.0
  N  N291  1  0.88144000  0.32890000  0.41524000  1.0
  N  N292  1  0.87983000  0.33860000  0.31740000  1.0
  N  N293  1  0.83187000  0.31140000  0.32640000  1.0
  N  N294  1  0.96124000  0.01060000  0.41240000  1.0
  N  N295  1  0.94388000  0.05900000  0.31652000  1.0
  N  N296  1  0.90450000  0.98650000  0.33100000  1.0
  N  N297  1  0.41648000  0.19780000  0.09899000  1.0
  N  N298  1  0.43614000  0.16270000  0.19530000  1.0
  N  N299  1  0.43345000  0.29780000  0.18930000  1.0
  N  N300  1  0.38144000  0.82890000  0.41524000  1.0
  N  N301  1  0.37983000  0.83860000  0.31740000  1.0
  N  N302  1  0.33187000  0.81140000  0.32640000  1.0
  N  N303  1  0.46124000  0.51060000  0.41240000  1.0
  N  N304  1  0.44388000  0.55900000  0.31652000  1.0
  N  N305  1  0.40450000  0.48650000  0.33100000  1.0
  N  N306  1  0.08352000  0.69780000  0.40101000  1.0
  N  N307  1  0.06386000  0.66270000  0.30470000  1.0
  N  N308  1  0.06655000  0.79780000  0.31070000  1.0
  N  N309  1  0.11856000  0.32890000  0.08476000  1.0
  N  N310  1  0.12017000  0.33860000  0.18260000  1.0
  N  N311  1  0.16813000  0.31140000  0.17360000  1.0
  N  N312  1  0.03876000  0.01060000  0.08760000  1.0
  N  N313  1  0.05612000  0.05900000  0.18348000  1.0
  N  N314  1  0.09550000  0.98650000  0.16900000  1.0
  N  N315  1  0.58352000  0.19780000  0.40101000  1.0
  N  N316  1  0.56386000  0.16270000  0.30470000  1.0
  N  N317  1  0.56655000  0.29780000  0.31070000  1.0
  N  N318  1  0.61856000  0.82890000  0.08476000  1.0
  N  N319  1  0.62017000  0.83860000  0.18260000  1.0
  N  N320  1  0.66813000  0.81140000  0.17360000  1.0
  N  N321  1  0.53876000  0.51060000  0.08760000  1.0
  N  N322  1  0.55612000  0.55900000  0.18348000  1.0
  N  N323  1  0.59550000  0.48650000  0.16900000  1.0
  O  O324  1  0.16771000  0.57980000  0.47939000  1.0
  O  O325  1  0.16920000  0.31580000  0.46026000  1.0
  O  O326  1  0.26368000  0.56920000  0.44351000  1.0
  O  O327  1  0.34553000  0.43820000  0.58321000  1.0
  O  O328  1  0.43605000  0.43620000  0.53944000  1.0
  O  O329  1  0.41737000  0.19680000  0.49525000  1.0
  O  O330  1  0.33905000  0.37740000  0.47071000  1.0
  O  O331  1  0.24879000  0.11770000  0.48538000  1.0
  O  O332  1  0.25070000  0.31670000  0.39646000  1.0
  O  O333  1  0.45931000  0.96060000  0.50569000  1.0
  O  O334  1  0.66771000  0.07980000  0.47939000  1.0
  O  O335  1  0.66920000  0.81580000  0.46026000  1.0
  O  O336  1  0.76368000  0.06920000  0.44351000  1.0
  O  O337  1  0.84553000  0.93820000  0.58321000  1.0
  O  O338  1  0.93605000  0.93620000  0.53944000  1.0
  O  O339  1  0.91737000  0.69680000  0.49525000  1.0
  O  O340  1  0.83905000  0.87740000  0.47071000  1.0
  O  O341  1  0.74879000  0.61770000  0.48538000  1.0
  O  O342  1  0.75070000  0.81670000  0.39646000  1.0
  O  O343  1  0.95931000  0.46060000  0.50569000  1.0
  O  O344  1  0.83229000  0.57980000  0.02061000  1.0
  O  O345  1  0.83080000  0.31580000  0.03974000  1.0
  O  O346  1  0.73632000  0.56920000  0.05649000  1.0
  O  O347  1  0.65447000  0.43820000  0.91679000  1.0
  O  O348  1  0.56395000  0.43620000  0.96056000  1.0
  O  O349  1  0.58263000  0.19680000  0.00475000  1.0
  O  O350  1  0.66095000  0.37740000  0.02929000  1.0
  O  O351  1  0.75121000  0.11770000  0.01462000  1.0
  O  O352  1  0.74930000  0.31670000  0.10354000  1.0
  O  O353  1  0.54069000  0.96060000  0.99431000  1.0
  O  O354  1  0.33229000  0.07980000  0.02061000  1.0
  O  O355  1  0.33080000  0.81580000  0.03974000  1.0
  O  O356  1  0.23632000  0.06920000  0.05649000  1.0
  O  O357  1  0.15447000  0.93820000  0.91679000  1.0
  O  O358  1  0.06395000  0.93620000  0.96056000  1.0
  O  O359  1  0.08263000  0.69680000  0.00475000  1.0
  O  O360  1  0.16095000  0.87740000  0.02929000  1.0
  O  O361  1  0.25121000  0.61770000  0.01462000  1.0
  O  O362  1  0.24930000  0.81670000  0.10354000  1.0
  O  O363  1  0.04069000  0.46060000  0.99431000  1.0
  O  O364  1  0.83229000  0.42020000  0.52061000  1.0
  O  O365  1  0.83080000  0.68420000  0.53974000  1.0
  O  O366  1  0.73632000  0.43080000  0.55649000  1.0
  O  O367  1  0.65447000  0.56180000  0.41679000  1.0
  O  O368  1  0.56395000  0.56380000  0.46056000  1.0
  O  O369  1  0.58263000  0.80320000  0.50475000  1.0
  O  O370  1  0.66095000  0.62260000  0.52929000  1.0
  O  O371  1  0.75121000  0.88230000  0.51462000  1.0
  O  O372  1  0.74930000  0.68330000  0.60354000  1.0
  O  O373  1  0.54069000  0.03940000  0.49431000  1.0
  O  O374  1  0.33229000  0.92020000  0.52061000  1.0
  O  O375  1  0.33080000  0.18420000  0.53974000  1.0
  O  O376  1  0.23632000  0.93080000  0.55649000  1.0
  O  O377  1  0.15447000  0.06180000  0.41679000  1.0
  O  O378  1  0.06395000  0.06380000  0.46056000  1.0
  O  O379  1  0.08263000  0.30320000  0.50475000  1.0
  O  O380  1  0.16095000  0.12260000  0.52929000  1.0
  O  O381  1  0.25121000  0.38230000  0.51462000  1.0
  O  O382  1  0.24930000  0.18330000  0.60354000  1.0
  O  O383  1  0.04069000  0.53940000  0.49431000  1.0
  O  O384  1  0.16771000  0.42020000  0.97939000  1.0
  O  O385  1  0.16920000  0.68420000  0.96026000  1.0
  O  O386  1  0.26368000  0.43080000  0.94351000  1.0
  O  O387  1  0.34553000  0.56180000  0.08321000  1.0
  O  O388  1  0.43605000  0.56380000  0.03944000  1.0
  O  O389  1  0.41737000  0.80320000  0.99525000  1.0
  O  O390  1  0.33905000  0.62260000  0.97071000  1.0
  O  O391  1  0.24879000  0.88230000  0.98538000  1.0
  O  O392  1  0.25070000  0.68330000  0.89646000  1.0
  O  O393  1  0.45931000  0.03940000  0.00569000  1.0
  O  O394  1  0.66771000  0.92020000  0.97939000  1.0
  O  O395  1  0.66920000  0.18420000  0.96026000  1.0
  O  O396  1  0.76368000  0.93080000  0.94351000  1.0
  O  O397  1  0.84553000  0.06180000  0.08321000  1.0
  O  O398  1  0.93605000  0.06380000  0.03944000  1.0
  O  O399  1  0.91737000  0.30320000  0.99525000  1.0
  O  O400  1  0.83905000  0.12260000  0.97071000  1.0
  O  O401  1  0.74879000  0.38230000  0.98538000  1.0
  O  O402  1  0.75070000  0.18330000  0.89646000  1.0
  O  O403  1  0.95931000  0.53940000  0.00569000  1.0
