# generated using pymatgen
data_ErH4(CO2)4
_symmetry_space_group_name_H-M   'P 1'
_cell_length_a   6.65390000
_cell_length_b   18.36060000
_cell_length_c   8.43300000
_cell_angle_alpha   90.00000000
_cell_angle_beta   90.00000000
_cell_angle_gamma   90.00000000
_symmetry_Int_Tables_number   1
_chemical_formula_structural   ErH4(CO2)4
_chemical_formula_sum   'Er4 H16 C16 O32'
_cell_volume   1030.25620594
_cell_formula_units_Z   4
loop_
 _symmetry_equiv_pos_site_id
 _symmetry_equiv_pos_as_xyz
  1  'x, y, z'
loop_
 _atom_site_type_symbol
 _atom_site_label
 _atom_site_symmetry_multiplicity
 _atom_site_fract_x
 _atom_site_fract_y
 _atom_site_fract_z
 _atom_site_occupancy
  Er  Er0  1  0.00000000  0.35727000  0.25000000  1.0
  Er  Er1  1  0.50000000  0.85727000  0.25000000  1.0
  Er  Er2  1  0.00000000  0.64273000  0.75000000  1.0
  Er  Er3  1  0.50000000  0.14273000  0.75000000  1.0
  H  H4  1  0.28220000  0.28190000  0.54590000  1.0
  H  H5  1  0.78220000  0.78190000  0.54590000  1.0
  H  H6  1  0.71780000  0.71810000  0.04590000  1.0
  H  H7  1  0.21780000  0.21810000  0.04590000  1.0
  H  H8  1  0.71780000  0.28190000  0.95410000  1.0
  H  H9  1  0.21780000  0.78190000  0.95410000  1.0
  H  H10  1  0.28220000  0.71810000  0.45410000  1.0
  H  H11  1  0.78220000  0.21810000  0.45410000  1.0
  H  H12  1  0.78600000  0.50000000  0.00000000  1.0
  H  H13  1  0.28600000  0.00000000  0.00000000  1.0
  H  H14  1  0.21400000  0.50000000  0.50000000  1.0
  H  H15  1  0.71400000  0.00000000  0.50000000  1.0
  H  H16  1  0.50000000  0.32360000  0.25000000  1.0
  H  H17  1  0.00000000  0.82360000  0.25000000  1.0
  H  H18  1  0.50000000  0.67640000  0.75000000  1.0
  H  H19  1  0.00000000  0.17640000  0.75000000  1.0
  C  C20  1  0.26400000  0.24350000  0.47550000  1.0
  C  C21  1  0.76400000  0.74350000  0.47550000  1.0
  C  C22  1  0.73600000  0.75650000  0.97550000  1.0
  C  C23  1  0.23600000  0.25650000  0.97550000  1.0
  C  C24  1  0.73600000  0.24350000  0.02450000  1.0
  C  C25  1  0.23600000  0.74350000  0.02450000  1.0
  C  C26  1  0.26400000  0.75650000  0.52450000  1.0
  C  C27  1  0.76400000  0.25650000  0.52450000  1.0
  C  C28  1  0.92570000  0.50000000  0.00000000  1.0
  C  C29  1  0.42570000  0.00000000  0.00000000  1.0
  C  C30  1  0.07430000  0.50000000  0.50000000  1.0
  C  C31  1  0.57430000  0.00000000  0.50000000  1.0
  C  C32  1  0.50000000  0.37420000  0.25000000  1.0
  C  C33  1  0.00000000  0.87420000  0.25000000  1.0
  C  C34  1  0.50000000  0.62580000  0.75000000  1.0
  C  C35  1  0.00000000  0.12580000  0.75000000  1.0
  O  O36  1  0.01190000  0.45009000  0.06960000  1.0
  O  O37  1  0.33540000  0.40574000  0.27090000  1.0
  O  O38  1  0.32540000  0.18343000  0.51860000  1.0
  O  O39  1  0.17970000  0.25820000  0.34700000  1.0
  O  O40  1  0.51190000  0.95009000  0.06960000  1.0
  O  O41  1  0.83540000  0.90574000  0.27090000  1.0
  O  O42  1  0.82540000  0.68343000  0.51860000  1.0
  O  O43  1  0.67970000  0.75820000  0.34700000  1.0
  O  O44  1  0.98810000  0.54991000  0.56960000  1.0
  O  O45  1  0.66460000  0.59426000  0.77090000  1.0
  O  O46  1  0.67460000  0.81657000  0.01860000  1.0
  O  O47  1  0.82030000  0.74180000  0.84700000  1.0
  O  O48  1  0.48810000  0.04991000  0.56960000  1.0
  O  O49  1  0.16460000  0.09426000  0.77090000  1.0
  O  O50  1  0.17460000  0.31657000  0.01860000  1.0
  O  O51  1  0.32030000  0.24180000  0.84700000  1.0
  O  O52  1  0.98810000  0.45009000  0.43040000  1.0
  O  O53  1  0.66460000  0.40574000  0.22910000  1.0
  O  O54  1  0.67460000  0.18343000  0.98140000  1.0
  O  O55  1  0.82030000  0.25820000  0.15300000  1.0
  O  O56  1  0.48810000  0.95009000  0.43040000  1.0
  O  O57  1  0.16460000  0.90574000  0.22910000  1.0
  O  O58  1  0.17460000  0.68343000  0.98140000  1.0
  O  O59  1  0.32030000  0.75820000  0.15300000  1.0
  O  O60  1  0.01190000  0.54991000  0.93040000  1.0
  O  O61  1  0.33540000  0.59426000  0.72910000  1.0
  O  O62  1  0.32540000  0.81657000  0.48140000  1.0
  O  O63  1  0.17970000  0.74180000  0.65300000  1.0
  O  O64  1  0.51190000  0.04991000  0.93040000  1.0
  O  O65  1  0.83540000  0.09426000  0.72910000  1.0
  O  O66  1  0.82540000  0.31657000  0.48140000  1.0
  O  O67  1  0.67970000  0.24180000  0.65300000  1.0
