# generated using pymatgen
data_Gd2H24(C14O5)3
_symmetry_space_group_name_H-M   'P 1'
_cell_length_a   14.62600000
_cell_length_b   15.29700000
_cell_length_c   23.00900000
_cell_angle_alpha   84.81700000
_cell_angle_beta   83.60500000
_cell_angle_gamma   86.48800000
_symmetry_Int_Tables_number   1
_chemical_formula_structural   Gd2H24(C14O5)3
_chemical_formula_sum   'Gd8 H96 C168 O60'
_cell_volume   5088.12330124
_cell_formula_units_Z   4
loop_
 _symmetry_equiv_pos_site_id
 _symmetry_equiv_pos_as_xyz
  1  'x, y, z'
loop_
 _atom_site_type_symbol
 _atom_site_label
 _atom_site_symmetry_multiplicity
 _atom_site_fract_x
 _atom_site_fract_y
 _atom_site_fract_z
 _atom_site_occupancy
  Gd  Gd0  1  0.18242000  0.87077000  0.71779000  1.0
  Gd  Gd1  1  0.20964000  0.11946000  0.75979000  1.0
  Gd  Gd2  1  0.32985000  0.33278000  0.77277000  1.0
  Gd  Gd3  1  0.29343000  0.59771000  0.76450000  1.0
  Gd  Gd4  1  0.81758000  0.12923000  0.28221000  1.0
  Gd  Gd5  1  0.79036000  0.88054000  0.24021000  1.0
  Gd  Gd6  1  0.67015000  0.66722000  0.22723000  1.0
  Gd  Gd7  1  0.70657000  0.40229000  0.23550000  1.0
  H  H8  1  0.35210000  0.98220000  0.59270000  1.0
  H  H9  1  0.14370000  0.14220000  0.54310000  1.0
  H  H10  1  0.40510000  0.96610000  0.49540000  1.0
  H  H11  1  0.19120000  0.12190000  0.44630000  1.0
  H  H12  1  0.20350000  0.35510000  0.64140000  1.0
  H  H13  1  0.21060000  0.28080000  0.55910000  1.0
  H  H14  1  0.39000000  0.51810000  0.56180000  1.0
  H  H15  1  0.40060000  0.44070000  0.47920000  1.0
  H  H16  1  0.53070000  0.43130000  0.66980000  1.0
  H  H17  1  0.63900000  0.56800000  0.78290000  1.0
  H  H18  1  0.67200000  0.42150000  0.61400000  1.0
  H  H19  1  0.78230000  0.55150000  0.73170000  1.0
  H  H20  1  0.91030000  0.12640000  0.93490000  1.0
  H  H21  1  0.73740000  0.98210000  0.86340000  1.0
  H  H22  1  0.02990000  0.07900000  0.86860000  1.0
  H  H23  1  0.85960000  0.93530000  0.79860000  1.0
  H  H24  1  0.14690000  0.16190000  0.97590000  1.0
  H  H25  1  0.41000000  0.18270000  0.90960000  1.0
  H  H26  1  0.45270000  0.19200000  0.00350000  1.0
  H  H27  1  0.18730000  0.17440000  0.06890000  1.0
  H  H28  1  0.30920000  0.35220000  0.97400000  1.0
  H  H29  1  0.16520000  0.57420000  0.93320000  1.0
  H  H30  1  0.27810000  0.37300000  0.07290000  1.0
  H  H31  1  0.43530000  0.04760000  0.08320000  1.0
  H  H32  1  0.55660000  0.20830000  0.21450000  1.0
  H  H33  1  0.56350000  0.99310000  0.12720000  1.0
  H  H34  1  0.42960000  0.26500000  0.16810000  1.0
  H  H35  1  0.07760000  0.49710000  0.70820000  1.0
  H  H36  1  0.96650000  0.72370000  0.63800000  1.0
  H  H37  1  0.96140000  0.42200000  0.67710000  1.0
  H  H38  1  0.84090000  0.08330000  0.11460000  1.0
  H  H39  1  0.82260000  0.02030000  0.03010000  1.0
  H  H40  1  0.68930000  0.29600000  0.06140000  1.0
  H  H41  1  0.67500000  0.23410000  0.97530000  1.0
  H  H42  1  0.36030000  0.32720000  0.35380000  1.0
  H  H43  1  0.50150000  0.30010000  0.30320000  1.0
  H  H44  1  0.59700000  0.20030000  0.45340000  1.0
  H  H45  1  0.45550000  0.23390000  0.50380000  1.0
  H  H46  1  0.85070000  0.64910000  0.60970000  1.0
  H  H47  1  0.13220000  0.59400000  0.03170000  1.0
  H  H48  1  0.08720000  0.73910000  0.19630000  1.0
  H  H49  1  0.20130000  0.64500000  0.15370000  1.0
  H  H50  1  0.01450000  0.47510000  0.13720000  1.0
  H  H51  1  0.89860000  0.56700000  0.18130000  1.0
  H  H52  1  0.48230000  0.05340000  0.34570000  1.0
  H  H53  1  0.32310000  0.86220000  0.41980000  1.0
  H  H54  1  0.59090000  0.94850000  0.31090000  1.0
  H  H55  1  0.43350000  0.75730000  0.38390000  1.0
  H  H56  1  0.64790000  0.01780000  0.40730000  1.0
  H  H57  1  0.85630000  0.85780000  0.45690000  1.0
  H  H58  1  0.59490000  0.03390000  0.50460000  1.0
  H  H59  1  0.80880000  0.87810000  0.55370000  1.0
  H  H60  1  0.79650000  0.64490000  0.35860000  1.0
  H  H61  1  0.78940000  0.71920000  0.44090000  1.0
  H  H62  1  0.61000000  0.48190000  0.43820000  1.0
  H  H63  1  0.59940000  0.55930000  0.52080000  1.0
  H  H64  1  0.46930000  0.56870000  0.33020000  1.0
  H  H65  1  0.36100000  0.43200000  0.21710000  1.0
  H  H66  1  0.32800000  0.57850000  0.38600000  1.0
  H  H67  1  0.21770000  0.44850000  0.26830000  1.0
  H  H68  1  0.08970000  0.87360000  0.06510000  1.0
  H  H69  1  0.26260000  0.01790000  0.13660000  1.0
  H  H70  1  0.97010000  0.92100000  0.13140000  1.0
  H  H71  1  0.14040000  0.06470000  0.20140000  1.0
  H  H72  1  0.85310000  0.83810000  0.02410000  1.0
  H  H73  1  0.59000000  0.81730000  0.09040000  1.0
  H  H74  1  0.54730000  0.80800000  0.99650000  1.0
  H  H75  1  0.81270000  0.82560000  0.93110000  1.0
  H  H76  1  0.69080000  0.64780000  0.02600000  1.0
  H  H77  1  0.83480000  0.42580000  0.06680000  1.0
  H  H78  1  0.72190000  0.62700000  0.92710000  1.0
  H  H79  1  0.56470000  0.95240000  0.91680000  1.0
  H  H80  1  0.44340000  0.79170000  0.78550000  1.0
  H  H81  1  0.43650000  0.00690000  0.87280000  1.0
  H  H82  1  0.57040000  0.73500000  0.83190000  1.0
  H  H83  1  0.92240000  0.50290000  0.29180000  1.0
  H  H84  1  0.03350000  0.27630000  0.36200000  1.0
  H  H85  1  0.03860000  0.57800000  0.32290000  1.0
  H  H86  1  0.15910000  0.91670000  0.88540000  1.0
  H  H87  1  0.17740000  0.97970000  0.96990000  1.0
  H  H88  1  0.31070000  0.70400000  0.93860000  1.0
  H  H89  1  0.32500000  0.76590000  0.02470000  1.0
  H  H90  1  0.63970000  0.67280000  0.64620000  1.0
  H  H91  1  0.49850000  0.69990000  0.69680000  1.0
  H  H92  1  0.40300000  0.79970000  0.54660000  1.0
  H  H93  1  0.54450000  0.76610000  0.49620000  1.0
  H  H94  1  0.14930000  0.35090000  0.39030000  1.0
  H  H95  1  0.86780000  0.40600000  0.96830000  1.0
  H  H96  1  0.91280000  0.26090000  0.80370000  1.0
  H  H97  1  0.79870000  0.35500000  0.84630000  1.0
  H  H98  1  0.98550000  0.52490000  0.86280000  1.0
  H  H99  1  0.10140000  0.43300000  0.81870000  1.0
  H  H100  1  0.51770000  0.94660000  0.65430000  1.0
  H  H101  1  0.67690000  0.13780000  0.58020000  1.0
  H  H102  1  0.40910000  0.05150000  0.68910000  1.0
  H  H103  1  0.56650000  0.24270000  0.61610000  1.0
  C  C104  1  0.21320000  0.07760000  0.64070000  1.0
  C  C105  1  0.24350000  0.06490000  0.57790000  1.0
  C  C106  1  0.32060000  0.01130000  0.56310000  1.0
  C  C107  1  0.19570000  0.10610000  0.53360000  1.0
  C  C108  1  0.30200000  0.04060000  0.46160000  1.0
  C  C109  1  0.35160000  0.00020000  0.50500000  1.0
  C  C110  1  0.22400000  0.09420000  0.47570000  1.0
  C  C111  1  0.29720000  0.44350000  0.61140000  1.0
  C  C112  1  0.29270000  0.49020000  0.66520000  1.0
  C  C113  1  0.24370000  0.37260000  0.60880000  1.0
  C  C114  1  0.30770000  0.35220000  0.51190000  1.0
  C  C115  1  0.24800000  0.32770000  0.55990000  1.0
  C  C116  1  0.35490000  0.46940000  0.56180000  1.0
  C  C117  1  0.36090000  0.42350000  0.51210000  1.0
  C  C118  1  0.47600000  0.51740000  0.76240000  1.0
  C  C119  1  0.58110000  0.45690000  0.68130000  1.0
  C  C120  1  0.64600000  0.53750000  0.74940000  1.0
  C  C121  1  0.66520000  0.45080000  0.64800000  1.0
  C  C122  1  0.73950000  0.48900000  0.66600000  1.0
  C  C123  1  0.57090000  0.50130000  0.73220000  1.0
  C  C124  1  0.73110000  0.52990000  0.71830000  1.0
  C  C125  1  0.03270000  0.96710000  0.78610000  1.0
  C  C126  1  0.89930000  0.08820000  0.90750000  1.0
  C  C127  1  0.95800000  0.00160000  0.82720000  1.0
  C  C128  1  0.81210000  0.06040000  0.90600000  1.0
  C  C129  1  0.79610000  0.00170000  0.86470000  1.0
  C  C130  1  0.97130000  0.05900000  0.86770000  1.0
  C  C131  1  0.86970000  0.97370000  0.82600000  1.0
  C  C132  1  0.74910000  0.12260000  0.99390000  1.0
  C  C133  1  0.24830000  0.16630000  0.87350000  1.0
  C  C134  1  0.27550000  0.17240000  0.93250000  1.0
  C  C135  1  0.32220000  0.18400000  0.04450000  1.0
  C  C136  1  0.20810000  0.16880000  0.98130000  1.0
  C  C137  1  0.36510000  0.18080000  0.94160000  1.0
  C  C138  1  0.39140000  0.18660000  0.99770000  1.0
  C  C139  1  0.23210000  0.17560000  0.03680000  1.0
  C  C140  1  0.27350000  0.40130000  0.98560000  1.0
  C  C141  1  0.23990000  0.46070000  0.94410000  1.0
  C  C142  1  0.26190000  0.44520000  0.88050000  1.0
  C  C143  1  0.18760000  0.53320000  0.96120000  1.0
  C  C144  1  0.25490000  0.41340000  0.04490000  1.0
  C  C145  1  0.45970000  0.07980000  0.10970000  1.0
  C  C146  1  0.42050000  0.16090000  0.12240000  1.0
  C  C147  1  0.57120000  0.09260000  0.17800000  1.0
  C  C148  1  0.53190000  0.17530000  0.18850000  1.0
  C  C149  1  0.53550000  0.04690000  0.13670000  1.0
  C  C150  1  0.65020000  0.05610000  0.20800000  1.0
  C  C151  1  0.45590000  0.20970000  0.16070000  1.0
  C  C152  1  0.03140000  0.61930000  0.67920000  1.0
  C  C153  1  0.03120000  0.52780000  0.68920000  1.0
  C  C154  1  0.96440000  0.66340000  0.64740000  1.0
  C  C155  1  0.96200000  0.48290000  0.67070000  1.0
  C  C156  1  0.09750000  0.66820000  0.70480000  1.0
  C  C157  1  0.89390000  0.53000000  0.64260000  1.0
  C  C158  1  0.80670000  0.11360000  0.08670000  1.0
  C  C159  1  0.79700000  0.07630000  0.03600000  1.0
  C  C160  1  0.76610000  0.19600000  0.09710000  1.0
  C  C161  1  0.71690000  0.24080000  0.05510000  1.0
  C  C162  1  0.70840000  0.20380000  0.00360000  1.0
  C  C163  1  0.39680000  0.28650000  0.43360000  1.0
  C  C164  1  0.40920000  0.30360000  0.37380000  1.0
  C  C165  1  0.56550000  0.24820000  0.37240000  1.0
  C  C166  1  0.49300000  0.28630000  0.34360000  1.0
  C  C167  1  0.54980000  0.22760000  0.43320000  1.0
  C  C168  1  0.46530000  0.24730000  0.46350000  1.0
  C  C169  1  0.89600000  0.61900000  0.63010000  1.0
  C  C170  1  0.77780000  0.23680000  0.15340000  1.0
  C  C171  1  0.65780000  0.22940000  0.34050000  1.0
  C  C172  1  0.20180000  0.48590000  0.06160000  1.0
  C  C173  1  0.16830000  0.54520000  0.02020000  1.0
  C  C174  1  0.11820000  0.55080000  0.14330000  1.0
  C  C175  1  0.07210000  0.68540000  0.18500000  1.0
  C  C176  1  0.14050000  0.62900000  0.15960000  1.0
  C  C177  1  0.02930000  0.52800000  0.15000000  1.0
  C  C178  1  0.98260000  0.66110000  0.19320000  1.0
  C  C179  1  0.91080000  0.72390000  0.22020000  1.0
  C  C180  1  0.95940000  0.58320000  0.17600000  1.0
  C  C181  1  0.47190000  0.99400000  0.35350000  1.0
  C  C182  1  0.39290000  0.96750000  0.38500000  1.0
  C  C183  1  0.37700000  0.87960000  0.39760000  1.0
  C  C184  1  0.52350000  0.84310000  0.34440000  1.0
  C  C185  1  0.53700000  0.93070000  0.33290000  1.0
  C  C186  1  0.44360000  0.81680000  0.37630000  1.0
  C  C187  1  0.59130000  0.77630000  0.31810000  1.0
  C  C188  1  0.78680000  0.92240000  0.35930000  1.0
  C  C189  1  0.75650000  0.93510000  0.42210000  1.0
  C  C190  1  0.67940000  0.98870000  0.43690000  1.0
  C  C191  1  0.80430000  0.89390000  0.46640000  1.0
  C  C192  1  0.69800000  0.95940000  0.53840000  1.0
  C  C193  1  0.64840000  0.99980000  0.49500000  1.0
  C  C194  1  0.77600000  0.90580000  0.52430000  1.0
  C  C195  1  0.70280000  0.55650000  0.38860000  1.0
  C  C196  1  0.70730000  0.50980000  0.33480000  1.0
  C  C197  1  0.75630000  0.62740000  0.39120000  1.0
  C  C198  1  0.69230000  0.64780000  0.48810000  1.0
  C  C199  1  0.75200000  0.67230000  0.44010000  1.0
  C  C200  1  0.64510000  0.53060000  0.43820000  1.0
  C  C201  1  0.63910000  0.57650000  0.48790000  1.0
  C  C202  1  0.52400000  0.48260000  0.23760000  1.0
  C  C203  1  0.41890000  0.54310000  0.31870000  1.0
  C  C204  1  0.35400000  0.46250000  0.25060000  1.0
  C  C205  1  0.33480000  0.54920000  0.35200000  1.0
  C  C206  1  0.26050000  0.51100000  0.33400000  1.0
  C  C207  1  0.42910000  0.49870000  0.26780000  1.0
  C  C208  1  0.26890000  0.47010000  0.28170000  1.0
  C  C209  1  0.96730000  0.03290000  0.21390000  1.0
  C  C210  1  0.10070000  0.91180000  0.09250000  1.0
  C  C211  1  0.04200000  0.99840000  0.17280000  1.0
  C  C212  1  0.18790000  0.93960000  0.09400000  1.0
  C  C213  1  0.20390000  0.99830000  0.13530000  1.0
  C  C214  1  0.02870000  0.94100000  0.13230000  1.0
  C  C215  1  0.13030000  0.02630000  0.17400000  1.0
  C  C216  1  0.25090000  0.87740000  0.00610000  1.0
  C  C217  1  0.75170000  0.83370000  0.12650000  1.0
  C  C218  1  0.72450000  0.82760000  0.06750000  1.0
  C  C219  1  0.67780000  0.81600000  0.95550000  1.0
  C  C220  1  0.79190000  0.83120000  0.01870000  1.0
  C  C221  1  0.63490000  0.81920000  0.05840000  1.0
  C  C222  1  0.60860000  0.81340000  0.00230000  1.0
  C  C223  1  0.76790000  0.82440000  0.96320000  1.0
  C  C224  1  0.72650000  0.59870000  0.01440000  1.0
  C  C225  1  0.76010000  0.53930000  0.05590000  1.0
  C  C226  1  0.73810000  0.55480000  0.11950000  1.0
  C  C227  1  0.81240000  0.46680000  0.03880000  1.0
  C  C228  1  0.74510000  0.58660000  0.95510000  1.0
  C  C229  1  0.54030000  0.92020000  0.89030000  1.0
  C  C230  1  0.57950000  0.83910000  0.87760000  1.0
  C  C231  1  0.42880000  0.90740000  0.82200000  1.0
  C  C232  1  0.46810000  0.82470000  0.81150000  1.0
  C  C233  1  0.46450000  0.95310000  0.86330000  1.0
  C  C234  1  0.34980000  0.94390000  0.79200000  1.0
  C  C235  1  0.54410000  0.79030000  0.83930000  1.0
  C  C236  1  0.96860000  0.38070000  0.32080000  1.0
  C  C237  1  0.96880000  0.47220000  0.31080000  1.0
  C  C238  1  0.03560000  0.33660000  0.35260000  1.0
  C  C239  1  0.03800000  0.51710000  0.32930000  1.0
  C  C240  1  0.90250000  0.33180000  0.29520000  1.0
  C  C241  1  0.10610000  0.47000000  0.35740000  1.0
  C  C242  1  0.19330000  0.88640000  0.91330000  1.0
  C  C243  1  0.20300000  0.92370000  0.96400000  1.0
  C  C244  1  0.23390000  0.80400000  0.90290000  1.0
  C  C245  1  0.28310000  0.75920000  0.94490000  1.0
  C  C246  1  0.29160000  0.79620000  0.99640000  1.0
  C  C247  1  0.60320000  0.71350000  0.56640000  1.0
  C  C248  1  0.59080000  0.69640000  0.62620000  1.0
  C  C249  1  0.43450000  0.75180000  0.62760000  1.0
  C  C250  1  0.50700000  0.71370000  0.65640000  1.0
  C  C251  1  0.45020000  0.77240000  0.56680000  1.0
  C  C252  1  0.53470000  0.75270000  0.53650000  1.0
  C  C253  1  0.10400000  0.38100000  0.36990000  1.0
  C  C254  1  0.22220000  0.76320000  0.84660000  1.0
  C  C255  1  0.34220000  0.77060000  0.65950000  1.0
  C  C256  1  0.79820000  0.51410000  0.93840000  1.0
  C  C257  1  0.83170000  0.45480000  0.97980000  1.0
  C  C258  1  0.88180000  0.44920000  0.85670000  1.0
  C  C259  1  0.92790000  0.31460000  0.81500000  1.0
  C  C260  1  0.85950000  0.37100000  0.84040000  1.0
  C  C261  1  0.97070000  0.47200000  0.85000000  1.0
  C  C262  1  0.01740000  0.33890000  0.80680000  1.0
  C  C263  1  0.08920000  0.27610000  0.77980000  1.0
  C  C264  1  0.04060000  0.41680000  0.82400000  1.0
  C  C265  1  0.52810000  0.00600000  0.64650000  1.0
  C  C266  1  0.60710000  0.03250000  0.61500000  1.0
  C  C267  1  0.62300000  0.12040000  0.60240000  1.0
  C  C268  1  0.47650000  0.15690000  0.65560000  1.0
  C  C269  1  0.46300000  0.06930000  0.66710000  1.0
  C  C270  1  0.55640000  0.18320000  0.62370000  1.0
  C  C271  1  0.40870000  0.22370000  0.68190000  1.0
  O  O272  1  0.24070000  0.02020000  0.67999000  1.0
  O  O273  1  0.32720000  0.03260000  0.40230000  1.0
  O  O274  1  0.26030000  0.45080000  0.71409000  1.0
  O  O275  1  0.32550000  0.56530000  0.66360000  1.0
  O  O276  1  0.30980000  0.30590000  0.46260000  1.0
  O  O277  1  0.41500000  0.46340000  0.76180000  1.0
  O  O278  1  0.45560000  0.58980000  0.78520000  1.0
  O  O279  1  0.82080000  0.48310000  0.62870000  1.0
  O  O280  1  0.02210000  0.90260000  0.75820000  1.0
  O  O281  1  0.11370000  0.00040000  0.78135000  1.0
  O  O282  1  0.73620000  0.08650000  0.94170000  1.0
  O  O283  1  0.30140000  0.19580000  0.82810000  1.0
  O  O284  1  0.17590000  0.13030000  0.86589000  1.0
  O  O285  1  0.23860000  0.50410000  0.84290000  1.0
  O  O286  1  0.30140000  0.37360000  0.86770000  1.0
  O  O287  1  0.18660000  0.49250000  0.12150000  1.0
  O  O288  1  0.16900000  0.14470000  0.65634000  1.0
  O  O289  1  0.34120000  0.19680000  0.10110000  1.0
  O  O290  1  0.68250000  0.10390000  0.24250000  1.0
  O  O291  1  0.68140000  0.97940000  0.20050000  1.0
  O  O292  1  0.14840000  0.62540000  0.74180000  1.0
  O  O293  1  0.10610000  0.74940000  0.69180000  1.0
  O  O294  1  0.72990000  0.30720000  0.16241000  1.0
  O  O295  1  0.83110000  0.19900000  0.18770000  1.0
  O  O296  1  0.71220000  0.17170000  0.36320000  1.0
  O  O297  1  0.67910000  0.26640000  0.28969000  1.0
  O  O298  1  0.93460000  0.79680000  0.23290000  1.0
  O  O299  1  0.82730000  0.70630000  0.22850000  1.0
  O  O300  1  0.57080000  0.69700000  0.31890000  1.0
  O  O301  1  0.66640000  0.80080000  0.28964000  1.0
  O  O302  1  0.75930000  0.97980000  0.32001000  1.0
  O  O303  1  0.67280000  0.96740000  0.59770000  1.0
  O  O304  1  0.73970000  0.54920000  0.28591000  1.0
  O  O305  1  0.67450000  0.43470000  0.33640000  1.0
  O  O306  1  0.69020000  0.69410000  0.53740000  1.0
  O  O307  1  0.58500000  0.53660000  0.23820000  1.0
  O  O308  1  0.54440000  0.41020000  0.21480000  1.0
  O  O309  1  0.17920000  0.51690000  0.37130000  1.0
  O  O310  1  0.97790000  0.09740000  0.24180000  1.0
  O  O311  1  0.88630000  0.99960000  0.21865000  1.0
  O  O312  1  0.26380000  0.91350000  0.05830000  1.0
  O  O313  1  0.69860000  0.80420000  0.17190000  1.0
  O  O314  1  0.82410000  0.86970000  0.13411000  1.0
  O  O315  1  0.76140000  0.49590000  0.15710000  1.0
  O  O316  1  0.69860000  0.62640000  0.13230000  1.0
  O  O317  1  0.81340000  0.50750000  0.87850000  1.0
  O  O318  1  0.83100000  0.85530000  0.34366000  1.0
  O  O319  1  0.65880000  0.80320000  0.89890000  1.0
  O  O320  1  0.31750000  0.89610000  0.75750000  1.0
  O  O321  1  0.31860000  0.02060000  0.79950000  1.0
  O  O322  1  0.85160000  0.37460000  0.25820000  1.0
  O  O323  1  0.89390000  0.25060000  0.30820000  1.0
  O  O324  1  0.27010000  0.69280000  0.83759000  1.0
  O  O325  1  0.16890000  0.80100000  0.81230000  1.0
  O  O326  1  0.28780000  0.82830000  0.63680000  1.0
  O  O327  1  0.32090000  0.73360000  0.71031000  1.0
  O  O328  1  0.06540000  0.20320000  0.76710000  1.0
  O  O329  1  0.17270000  0.29370000  0.77150000  1.0
  O  O330  1  0.42920000  0.30300000  0.68110000  1.0
  O  O331  1  0.33360000  0.19920000  0.71036000  1.0
