# generated using pymatgen
data_Zn4Mo12PH3C9O34
_symmetry_space_group_name_H-M   'P 1'
_cell_length_a   27.05840000
_cell_length_b   27.24480000
_cell_length_c   27.88020000
_cell_angle_alpha   90.00000000
_cell_angle_beta   90.00000000
_cell_angle_gamma   90.00000000
_symmetry_Int_Tables_number   1
_chemical_formula_structural   Zn4Mo12PH3C9O34
_chemical_formula_sum   'Zn32 Mo96 P8 H24 C72 O272'
_cell_volume   20553.30285354
_cell_formula_units_Z   8
loop_
 _symmetry_equiv_pos_site_id
 _symmetry_equiv_pos_as_xyz
  1  'x, y, z'
loop_
 _atom_site_type_symbol
 _atom_site_label
 _atom_site_symmetry_multiplicity
 _atom_site_fract_x
 _atom_site_fract_y
 _atom_site_fract_z
 _atom_site_occupancy
  Zn  Zn0  1  0.46676000  0.99211000  0.05993000  1.0
  Zn  Zn1  1  0.43318000  0.78174000  0.99027000  1.0
  Zn  Zn2  1  0.42121000  0.83997000  0.20226000  1.0
  Zn  Zn3  1  0.61357000  0.82307000  0.08666000  1.0
  Zn  Zn4  1  0.03324000  0.00789000  0.55993000  1.0
  Zn  Zn5  1  0.06682000  0.21826000  0.49027000  1.0
  Zn  Zn6  1  0.07879000  0.16003000  0.70226000  1.0
  Zn  Zn7  1  0.88643000  0.17693000  0.58666000  1.0
  Zn  Zn8  1  0.53324000  0.49211000  0.44007000  1.0
  Zn  Zn9  1  0.56682000  0.28174000  0.50973000  1.0
  Zn  Zn10  1  0.57879000  0.33997000  0.29774000  1.0
  Zn  Zn11  1  0.38643000  0.32307000  0.41334000  1.0
  Zn  Zn12  1  0.96676000  0.50789000  0.94007000  1.0
  Zn  Zn13  1  0.93318000  0.71826000  0.00973000  1.0
  Zn  Zn14  1  0.92121000  0.66003000  0.79774000  1.0
  Zn  Zn15  1  0.11357000  0.67693000  0.91334000  1.0
  Zn  Zn16  1  0.53324000  0.00789000  0.94007000  1.0
  Zn  Zn17  1  0.56682000  0.21826000  0.00973000  1.0
  Zn  Zn18  1  0.57879000  0.16003000  0.79774000  1.0
  Zn  Zn19  1  0.38643000  0.17693000  0.91334000  1.0
  Zn  Zn20  1  0.96676000  0.99211000  0.44007000  1.0
  Zn  Zn21  1  0.93318000  0.78174000  0.50973000  1.0
  Zn  Zn22  1  0.92121000  0.83997000  0.29774000  1.0
  Zn  Zn23  1  0.11357000  0.82307000  0.41334000  1.0
  Zn  Zn24  1  0.46676000  0.50789000  0.55993000  1.0
  Zn  Zn25  1  0.43318000  0.71826000  0.49027000  1.0
  Zn  Zn26  1  0.42121000  0.66003000  0.70226000  1.0
  Zn  Zn27  1  0.61357000  0.67693000  0.58666000  1.0
  Zn  Zn28  1  0.03324000  0.49211000  0.05993000  1.0
  Zn  Zn29  1  0.06682000  0.28174000  0.99027000  1.0
  Zn  Zn30  1  0.07879000  0.33997000  0.20226000  1.0
  Zn  Zn31  1  0.88643000  0.32307000  0.08666000  1.0
  Mo  Mo32  1  0.57909000  0.92850000  0.01875000  1.0
  Mo  Mo33  1  0.57979000  0.95035000  0.10993000  1.0
  Mo  Mo34  1  0.53328000  0.73221000  0.05283000  1.0
  Mo  Mo35  1  0.53258000  0.76798000  0.17123000  1.0
  Mo  Mo36  1  0.42280000  0.74146000  0.11191000  1.0
  Mo  Mo37  1  0.46770000  0.90361000  0.96024000  1.0
  Mo  Mo38  1  0.55608000  0.81383000  0.97370000  1.0
  Mo  Mo39  1  0.35738000  0.81056000  0.09440000  1.0
  Mo  Mo40  1  0.55284000  0.85825000  0.19835000  1.0
  Mo  Mo41  1  0.38417000  0.90553000  0.00797000  1.0
  Mo  Mo42  1  0.37466000  0.93161000  0.12743000  1.0
  Mo  Mo43  1  0.47554000  0.95614000  0.17975000  1.0
  Mo  Mo44  1  0.92091000  0.07150000  0.51875000  1.0
  Mo  Mo45  1  0.92021000  0.04965000  0.60993000  1.0
  Mo  Mo46  1  0.96672000  0.26779000  0.55283000  1.0
  Mo  Mo47  1  0.96742000  0.23202000  0.67123000  1.0
  Mo  Mo48  1  0.07720000  0.25854000  0.61191000  1.0
  Mo  Mo49  1  0.03230000  0.09639000  0.46024000  1.0
  Mo  Mo50  1  0.94392000  0.18617000  0.47370000  1.0
  Mo  Mo51  1  0.14262000  0.18944000  0.59440000  1.0
  Mo  Mo52  1  0.94716000  0.14175000  0.69835000  1.0
  Mo  Mo53  1  0.11583000  0.09447000  0.50797000  1.0
  Mo  Mo54  1  0.12534000  0.06839000  0.62743000  1.0
  Mo  Mo55  1  0.02446000  0.04386000  0.67975000  1.0
  Mo  Mo56  1  0.42091000  0.42850000  0.48125000  1.0
  Mo  Mo57  1  0.42021000  0.45035000  0.39007000  1.0
  Mo  Mo58  1  0.46672000  0.23221000  0.44717000  1.0
  Mo  Mo59  1  0.46742000  0.26798000  0.32877000  1.0
  Mo  Mo60  1  0.57720000  0.24146000  0.38809000  1.0
  Mo  Mo61  1  0.53230000  0.40361000  0.53976000  1.0
  Mo  Mo62  1  0.44392000  0.31383000  0.52630000  1.0
  Mo  Mo63  1  0.64262000  0.31056000  0.40560000  1.0
  Mo  Mo64  1  0.44716000  0.35825000  0.30165000  1.0
  Mo  Mo65  1  0.61583000  0.40553000  0.49203000  1.0
  Mo  Mo66  1  0.62534000  0.43161000  0.37257000  1.0
  Mo  Mo67  1  0.52446000  0.45614000  0.32025000  1.0
  Mo  Mo68  1  0.07909000  0.57150000  0.98125000  1.0
  Mo  Mo69  1  0.07979000  0.54965000  0.89007000  1.0
  Mo  Mo70  1  0.03328000  0.76779000  0.94717000  1.0
  Mo  Mo71  1  0.03258000  0.73202000  0.82877000  1.0
  Mo  Mo72  1  0.92280000  0.75854000  0.88809000  1.0
  Mo  Mo73  1  0.96770000  0.59639000  0.03976000  1.0
  Mo  Mo74  1  0.05608000  0.68617000  0.02630000  1.0
  Mo  Mo75  1  0.85738000  0.68944000  0.90560000  1.0
  Mo  Mo76  1  0.05284000  0.64175000  0.80165000  1.0
  Mo  Mo77  1  0.88417000  0.59447000  0.99203000  1.0
  Mo  Mo78  1  0.87466000  0.56839000  0.87257000  1.0
  Mo  Mo79  1  0.97554000  0.54386000  0.82025000  1.0
  Mo  Mo80  1  0.42091000  0.07150000  0.98125000  1.0
  Mo  Mo81  1  0.42021000  0.04965000  0.89007000  1.0
  Mo  Mo82  1  0.46672000  0.26779000  0.94717000  1.0
  Mo  Mo83  1  0.46742000  0.23202000  0.82877000  1.0
  Mo  Mo84  1  0.57720000  0.25854000  0.88809000  1.0
  Mo  Mo85  1  0.53230000  0.09639000  0.03976000  1.0
  Mo  Mo86  1  0.44392000  0.18617000  0.02630000  1.0
  Mo  Mo87  1  0.64262000  0.18944000  0.90560000  1.0
  Mo  Mo88  1  0.44716000  0.14175000  0.80165000  1.0
  Mo  Mo89  1  0.61583000  0.09447000  0.99203000  1.0
  Mo  Mo90  1  0.62534000  0.06839000  0.87257000  1.0
  Mo  Mo91  1  0.52446000  0.04386000  0.82025000  1.0
  Mo  Mo92  1  0.07909000  0.92850000  0.48125000  1.0
  Mo  Mo93  1  0.07979000  0.95035000  0.39007000  1.0
  Mo  Mo94  1  0.03328000  0.73221000  0.44717000  1.0
  Mo  Mo95  1  0.03258000  0.76798000  0.32877000  1.0
  Mo  Mo96  1  0.92280000  0.74146000  0.38809000  1.0
  Mo  Mo97  1  0.96770000  0.90361000  0.53976000  1.0
  Mo  Mo98  1  0.05608000  0.81383000  0.52630000  1.0
  Mo  Mo99  1  0.85738000  0.81056000  0.40560000  1.0
  Mo  Mo100  1  0.05284000  0.85825000  0.30165000  1.0
  Mo  Mo101  1  0.88417000  0.90553000  0.49203000  1.0
  Mo  Mo102  1  0.87466000  0.93161000  0.37257000  1.0
  Mo  Mo103  1  0.97554000  0.95614000  0.32025000  1.0
  Mo  Mo104  1  0.57909000  0.57150000  0.51875000  1.0
  Mo  Mo105  1  0.57979000  0.54965000  0.60993000  1.0
  Mo  Mo106  1  0.53328000  0.76779000  0.55283000  1.0
  Mo  Mo107  1  0.53258000  0.73202000  0.67123000  1.0
  Mo  Mo108  1  0.42280000  0.75854000  0.61191000  1.0
  Mo  Mo109  1  0.46770000  0.59639000  0.46024000  1.0
  Mo  Mo110  1  0.55608000  0.68617000  0.47370000  1.0
  Mo  Mo111  1  0.35738000  0.68944000  0.59440000  1.0
  Mo  Mo112  1  0.55284000  0.64175000  0.69835000  1.0
  Mo  Mo113  1  0.38417000  0.59447000  0.50797000  1.0
  Mo  Mo114  1  0.37466000  0.56839000  0.62743000  1.0
  Mo  Mo115  1  0.47554000  0.54386000  0.67975000  1.0
  Mo  Mo116  1  0.92091000  0.42850000  0.01875000  1.0
  Mo  Mo117  1  0.92021000  0.45035000  0.10993000  1.0
  Mo  Mo118  1  0.96672000  0.23221000  0.05283000  1.0
  Mo  Mo119  1  0.96742000  0.26798000  0.17123000  1.0
  Mo  Mo120  1  0.07720000  0.24146000  0.11191000  1.0
  Mo  Mo121  1  0.03230000  0.40361000  0.96024000  1.0
  Mo  Mo122  1  0.94392000  0.31383000  0.97370000  1.0
  Mo  Mo123  1  0.14262000  0.31056000  0.09440000  1.0
  Mo  Mo124  1  0.94716000  0.35825000  0.19835000  1.0
  Mo  Mo125  1  0.11583000  0.40553000  0.00797000  1.0
  Mo  Mo126  1  0.12534000  0.43161000  0.12743000  1.0
  Mo  Mo127  1  0.02446000  0.45614000  0.17975000  1.0
  P  P128  1  0.48491000  0.85935000  0.08328000  1.0
  P  P129  1  0.01509000  0.14065000  0.58328000  1.0
  P  P130  1  0.51509000  0.35935000  0.41672000  1.0
  P  P131  1  0.98491000  0.64065000  0.91672000  1.0
  P  P132  1  0.51509000  0.14065000  0.91672000  1.0
  P  P133  1  0.98491000  0.85935000  0.41672000  1.0
  P  P134  1  0.48491000  0.64065000  0.58328000  1.0
  P  P135  1  0.01509000  0.35935000  0.08328000  1.0
  H  H136  1  0.89020000  0.77970000  0.15090000  1.0
  H  H137  1  0.76370000  0.77620000  0.07320000  1.0
  H  H138  1  0.76500000  0.85100000  0.20500000  1.0
  H  H139  1  0.60980000  0.22030000  0.65090000  1.0
  H  H140  1  0.73630000  0.22380000  0.57320000  1.0
  H  H141  1  0.73500000  0.14900000  0.70500000  1.0
  H  H142  1  0.10980000  0.27970000  0.34910000  1.0
  H  H143  1  0.23630000  0.27620000  0.42680000  1.0
  H  H144  1  0.23500000  0.35100000  0.29500000  1.0
  H  H145  1  0.39020000  0.72030000  0.84910000  1.0
  H  H146  1  0.26370000  0.72380000  0.92680000  1.0
  H  H147  1  0.26500000  0.64900000  0.79500000  1.0
  H  H148  1  0.10980000  0.22030000  0.84910000  1.0
  H  H149  1  0.23630000  0.22380000  0.92680000  1.0
  H  H150  1  0.23500000  0.14900000  0.79500000  1.0
  H  H151  1  0.39020000  0.77970000  0.34910000  1.0
  H  H152  1  0.26370000  0.77620000  0.42680000  1.0
  H  H153  1  0.26500000  0.85100000  0.29500000  1.0
  H  H154  1  0.89020000  0.72030000  0.65090000  1.0
  H  H155  1  0.76370000  0.72380000  0.57320000  1.0
  H  H156  1  0.76500000  0.64900000  0.70500000  1.0
  H  H157  1  0.60980000  0.27970000  0.15090000  1.0
  H  H158  1  0.73630000  0.27620000  0.07320000  1.0
  H  H159  1  0.73500000  0.35100000  0.20500000  1.0
  C  C160  1  0.70550000  0.83110000  0.12760000  1.0
  C  C161  1  0.83180000  0.77420000  0.10570000  1.0
  C  C162  1  0.85660000  0.74660000  0.06680000  1.0
  C  C163  1  0.78260000  0.82670000  0.17800000  1.0
  C  C164  1  0.75770000  0.81370000  0.13470000  1.0
  C  C165  1  0.85630000  0.78780000  0.14720000  1.0
  C  C166  1  0.83200000  0.81320000  0.18390000  1.0
  C  C167  1  0.78140000  0.78680000  0.10080000  1.0
  C  C168  1  0.85630000  0.82840000  0.23050000  1.0
  C  C169  1  0.79450000  0.16890000  0.62760000  1.0
  C  C170  1  0.66820000  0.22580000  0.60570000  1.0
  C  C171  1  0.64340000  0.25340000  0.56680000  1.0
  C  C172  1  0.71740000  0.17330000  0.67800000  1.0
  C  C173  1  0.74230000  0.18630000  0.63470000  1.0
  C  C174  1  0.64370000  0.21220000  0.64720000  1.0
  C  C175  1  0.66800000  0.18680000  0.68390000  1.0
  C  C176  1  0.71860000  0.21320000  0.60080000  1.0
  C  C177  1  0.64370000  0.17160000  0.73050000  1.0
  C  C178  1  0.29450000  0.33110000  0.37240000  1.0
  C  C179  1  0.16820000  0.27420000  0.39430000  1.0
  C  C180  1  0.14340000  0.24660000  0.43320000  1.0
  C  C181  1  0.21740000  0.32670000  0.32200000  1.0
  C  C182  1  0.24230000  0.31370000  0.36530000  1.0
  C  C183  1  0.14370000  0.28780000  0.35280000  1.0
  C  C184  1  0.16800000  0.31320000  0.31610000  1.0
  C  C185  1  0.21860000  0.28680000  0.39920000  1.0
  C  C186  1  0.14370000  0.32840000  0.26950000  1.0
  C  C187  1  0.20550000  0.66890000  0.87240000  1.0
  C  C188  1  0.33180000  0.72580000  0.89430000  1.0
  C  C189  1  0.35660000  0.75340000  0.93320000  1.0
  C  C190  1  0.28260000  0.67330000  0.82200000  1.0
  C  C191  1  0.25770000  0.68630000  0.86530000  1.0
  C  C192  1  0.35630000  0.71220000  0.85280000  1.0
  C  C193  1  0.33200000  0.68680000  0.81610000  1.0
  C  C194  1  0.28140000  0.71320000  0.89920000  1.0
  C  C195  1  0.35630000  0.67160000  0.76950000  1.0
  C  C196  1  0.29450000  0.16890000  0.87240000  1.0
  C  C197  1  0.16820000  0.22580000  0.89430000  1.0
  C  C198  1  0.14340000  0.25340000  0.93320000  1.0
  C  C199  1  0.21740000  0.17330000  0.82200000  1.0
  C  C200  1  0.24230000  0.18630000  0.86530000  1.0
  C  C201  1  0.14370000  0.21220000  0.85280000  1.0
  C  C202  1  0.16800000  0.18680000  0.81610000  1.0
  C  C203  1  0.21860000  0.21320000  0.89920000  1.0
  C  C204  1  0.14370000  0.17160000  0.76950000  1.0
  C  C205  1  0.20550000  0.83110000  0.37240000  1.0
  C  C206  1  0.33180000  0.77420000  0.39430000  1.0
  C  C207  1  0.35660000  0.74660000  0.43320000  1.0
  C  C208  1  0.28260000  0.82670000  0.32200000  1.0
  C  C209  1  0.25770000  0.81370000  0.36530000  1.0
  C  C210  1  0.35630000  0.78780000  0.35280000  1.0
  C  C211  1  0.33200000  0.81320000  0.31610000  1.0
  C  C212  1  0.28140000  0.78680000  0.39920000  1.0
  C  C213  1  0.35630000  0.82840000  0.26950000  1.0
  C  C214  1  0.70550000  0.66890000  0.62760000  1.0
  C  C215  1  0.83180000  0.72580000  0.60570000  1.0
  C  C216  1  0.85660000  0.75340000  0.56680000  1.0
  C  C217  1  0.78260000  0.67330000  0.67800000  1.0
  C  C218  1  0.75770000  0.68630000  0.63470000  1.0
  C  C219  1  0.85630000  0.71220000  0.64720000  1.0
  C  C220  1  0.83200000  0.68680000  0.68390000  1.0
  C  C221  1  0.78140000  0.71320000  0.60080000  1.0
  C  C222  1  0.85630000  0.67160000  0.73050000  1.0
  C  C223  1  0.79450000  0.33110000  0.12760000  1.0
  C  C224  1  0.66820000  0.27420000  0.10570000  1.0
  C  C225  1  0.64340000  0.24660000  0.06680000  1.0
  C  C226  1  0.71740000  0.32670000  0.17800000  1.0
  C  C227  1  0.74230000  0.31370000  0.13470000  1.0
  C  C228  1  0.64370000  0.28780000  0.14720000  1.0
  C  C229  1  0.66800000  0.31320000  0.18390000  1.0
  C  C230  1  0.71860000  0.28680000  0.10080000  1.0
  C  C231  1  0.64370000  0.32840000  0.23050000  1.0
  O  O232  1  0.60560000  0.89400000  0.07460000  1.0
  O  O233  1  0.68360000  0.81110000  0.09160000  1.0
  O  O234  1  0.90410000  0.75120000  0.06440000  1.0
  O  O235  1  0.68640000  0.86060000  0.15480000  1.0
  O  O236  1  0.90340000  0.81610000  0.23350000  1.0
  O  O237  1  0.83210000  0.72150000  0.03880000  1.0
  O  O238  1  0.83450000  0.85050000  0.26150000  1.0
  O  O239  1  0.44190000  0.94890000  0.00860000  1.0
  O  O240  1  0.47120000  0.73120000  0.16180000  1.0
  O  O241  1  0.42080000  0.85200000  0.97750000  1.0
  O  O242  1  0.53200000  0.94070000  0.96420000  1.0
  O  O243  1  0.50980000  0.87140000  0.03390000  1.0
  O  O244  1  0.42890000  0.87170000  0.07920000  1.0
  O  O245  1  0.60080000  0.91060000  0.16980000  1.0
  O  O246  1  0.59730000  0.86650000  0.98350000  1.0
  O  O247  1  0.39820000  0.79550000  0.15120000  1.0
  O  O248  1  0.49260000  0.81930000  0.20130000  1.0
  O  O249  1  0.39950000  0.77130000  0.05150000  1.0
  O  O250  1  0.50960000  0.84610000  0.93870000  1.0
  O  O251  1  0.50350000  0.76760000  0.99630000  1.0
  O  O252  1  0.34010000  0.84870000  0.03260000  1.0
  O  O253  1  0.49080000  0.80490000  0.09540000  1.0
  O  O254  1  0.41950000  0.90790000  0.17900000  1.0
  O  O255  1  0.53620000  0.97050000  0.05760000  1.0
  O  O256  1  0.43750000  0.97150000  0.12030000  1.0
  O  O257  1  0.47200000  0.70940000  0.06720000  1.0
  O  O258  1  0.58040000  0.78670000  0.03640000  1.0
  O  O259  1  0.58230000  0.81540000  0.14940000  1.0
  O  O260  1  0.36170000  0.94550000  0.06440000  1.0
  O  O261  1  0.52980000  0.98470000  0.15220000  1.0
  O  O262  1  0.50880000  0.91410000  0.21890000  1.0
  O  O263  1  0.55860000  0.73090000  0.11300000  1.0
  O  O264  1  0.34300000  0.87370000  0.12980000  1.0
  O  O265  1  0.51100000  0.89080000  0.12260000  1.0
  O  O266  1  0.89440000  0.10600000  0.57460000  1.0
  O  O267  1  0.81640000  0.18890000  0.59160000  1.0
  O  O268  1  0.59590000  0.24880000  0.56440000  1.0
  O  O269  1  0.81360000  0.13940000  0.65480000  1.0
  O  O270  1  0.59660000  0.18390000  0.73350000  1.0
  O  O271  1  0.66790000  0.27850000  0.53880000  1.0
  O  O272  1  0.66550000  0.14950000  0.76150000  1.0
  O  O273  1  0.05810000  0.05110000  0.50860000  1.0
  O  O274  1  0.02880000  0.26880000  0.66180000  1.0
  O  O275  1  0.07920000  0.14800000  0.47750000  1.0
  O  O276  1  0.96800000  0.05930000  0.46420000  1.0
  O  O277  1  0.99020000  0.12860000  0.53390000  1.0
  O  O278  1  0.07110000  0.12830000  0.57920000  1.0
  O  O279  1  0.89920000  0.08940000  0.66980000  1.0
  O  O280  1  0.90270000  0.13350000  0.48350000  1.0
  O  O281  1  0.10180000  0.20450000  0.65120000  1.0
  O  O282  1  0.00740000  0.18070000  0.70130000  1.0
  O  O283  1  0.10050000  0.22870000  0.55150000  1.0
  O  O284  1  0.99040000  0.15390000  0.43870000  1.0
  O  O285  1  0.99650000  0.23240000  0.49630000  1.0
  O  O286  1  0.15990000  0.15130000  0.53260000  1.0
  O  O287  1  0.00920000  0.19510000  0.59540000  1.0
  O  O288  1  0.08050000  0.09210000  0.67900000  1.0
  O  O289  1  0.96380000  0.02950000  0.55760000  1.0
  O  O290  1  0.06250000  0.02850000  0.62030000  1.0
  O  O291  1  0.02800000  0.29060000  0.56720000  1.0
  O  O292  1  0.91960000  0.21330000  0.53640000  1.0
  O  O293  1  0.91770000  0.18460000  0.64940000  1.0
  O  O294  1  0.13830000  0.05450000  0.56440000  1.0
  O  O295  1  0.97020000  0.01530000  0.65220000  1.0
  O  O296  1  0.99120000  0.08590000  0.71890000  1.0
  O  O297  1  0.94140000  0.26910000  0.61300000  1.0
  O  O298  1  0.15700000  0.12630000  0.62980000  1.0
  O  O299  1  0.98900000  0.10920000  0.62260000  1.0
  O  O300  1  0.39440000  0.39400000  0.42540000  1.0
  O  O301  1  0.31640000  0.31110000  0.40840000  1.0
  O  O302  1  0.09590000  0.25120000  0.43560000  1.0
  O  O303  1  0.31360000  0.36060000  0.34520000  1.0
  O  O304  1  0.09660000  0.31610000  0.26650000  1.0
  O  O305  1  0.16790000  0.22150000  0.46120000  1.0
  O  O306  1  0.16550000  0.35050000  0.23850000  1.0
  O  O307  1  0.55810000  0.44890000  0.49140000  1.0
  O  O308  1  0.52880000  0.23120000  0.33820000  1.0
  O  O309  1  0.57920000  0.35200000  0.52250000  1.0
  O  O310  1  0.46800000  0.44070000  0.53580000  1.0
  O  O311  1  0.49020000  0.37140000  0.46610000  1.0
  O  O312  1  0.57110000  0.37170000  0.42080000  1.0
  O  O313  1  0.39920000  0.41060000  0.33020000  1.0
  O  O314  1  0.40270000  0.36650000  0.51650000  1.0
  O  O315  1  0.60180000  0.29550000  0.34880000  1.0
  O  O316  1  0.50740000  0.31930000  0.29870000  1.0
  O  O317  1  0.60050000  0.27130000  0.44850000  1.0
  O  O318  1  0.49040000  0.34610000  0.56130000  1.0
  O  O319  1  0.49650000  0.26760000  0.50370000  1.0
  O  O320  1  0.65990000  0.34870000  0.46740000  1.0
  O  O321  1  0.50920000  0.30490000  0.40460000  1.0
  O  O322  1  0.58050000  0.40790000  0.32100000  1.0
  O  O323  1  0.46380000  0.47050000  0.44240000  1.0
  O  O324  1  0.56250000  0.47150000  0.37970000  1.0
  O  O325  1  0.52800000  0.20940000  0.43280000  1.0
  O  O326  1  0.41960000  0.28670000  0.46360000  1.0
  O  O327  1  0.41770000  0.31540000  0.35060000  1.0
  O  O328  1  0.63830000  0.44550000  0.43560000  1.0
  O  O329  1  0.47020000  0.48470000  0.34780000  1.0
  O  O330  1  0.49120000  0.41410000  0.28110000  1.0
  O  O331  1  0.44140000  0.23090000  0.38700000  1.0
  O  O332  1  0.65700000  0.37370000  0.37020000  1.0
  O  O333  1  0.48900000  0.39080000  0.37740000  1.0
  O  O334  1  0.10560000  0.60600000  0.92540000  1.0
  O  O335  1  0.18360000  0.68890000  0.90840000  1.0
  O  O336  1  0.40410000  0.74880000  0.93560000  1.0
  O  O337  1  0.18640000  0.63940000  0.84520000  1.0
  O  O338  1  0.40340000  0.68390000  0.76650000  1.0
  O  O339  1  0.33210000  0.77850000  0.96120000  1.0
  O  O340  1  0.33450000  0.64950000  0.73850000  1.0
  O  O341  1  0.94190000  0.55110000  0.99140000  1.0
  O  O342  1  0.97120000  0.76880000  0.83820000  1.0
  O  O343  1  0.92080000  0.64800000  0.02250000  1.0
  O  O344  1  0.03200000  0.55930000  0.03580000  1.0
  O  O345  1  0.00980000  0.62860000  0.96610000  1.0
  O  O346  1  0.92890000  0.62830000  0.92080000  1.0
  O  O347  1  0.10080000  0.58940000  0.83020000  1.0
  O  O348  1  0.09730000  0.63350000  0.01650000  1.0
  O  O349  1  0.89820000  0.70450000  0.84880000  1.0
  O  O350  1  0.99260000  0.68070000  0.79870000  1.0
  O  O351  1  0.89950000  0.72870000  0.94850000  1.0
  O  O352  1  0.00960000  0.65390000  0.06130000  1.0
  O  O353  1  0.00350000  0.73240000  0.00370000  1.0
  O  O354  1  0.84010000  0.65130000  0.96740000  1.0
  O  O355  1  0.99080000  0.69510000  0.90460000  1.0
  O  O356  1  0.91950000  0.59210000  0.82100000  1.0
  O  O357  1  0.03620000  0.52950000  0.94240000  1.0
  O  O358  1  0.93750000  0.52850000  0.87970000  1.0
  O  O359  1  0.97200000  0.79060000  0.93280000  1.0
  O  O360  1  0.08040000  0.71330000  0.96360000  1.0
  O  O361  1  0.08230000  0.68460000  0.85060000  1.0
  O  O362  1  0.86170000  0.55450000  0.93560000  1.0
  O  O363  1  0.02980000  0.51530000  0.84780000  1.0
  O  O364  1  0.00880000  0.58590000  0.78110000  1.0
  O  O365  1  0.05860000  0.76910000  0.88700000  1.0
  O  O366  1  0.84300000  0.62630000  0.87020000  1.0
  O  O367  1  0.01100000  0.60920000  0.87740000  1.0
  O  O368  1  0.39440000  0.10600000  0.92540000  1.0
  O  O369  1  0.31640000  0.18890000  0.90840000  1.0
  O  O370  1  0.09590000  0.24880000  0.93560000  1.0
  O  O371  1  0.31360000  0.13940000  0.84520000  1.0
  O  O372  1  0.09660000  0.18390000  0.76650000  1.0
  O  O373  1  0.16790000  0.27850000  0.96120000  1.0
  O  O374  1  0.16550000  0.14950000  0.73850000  1.0
  O  O375  1  0.55810000  0.05110000  0.99140000  1.0
  O  O376  1  0.52880000  0.26880000  0.83820000  1.0
  O  O377  1  0.57920000  0.14800000  0.02250000  1.0
  O  O378  1  0.46800000  0.05930000  0.03580000  1.0
  O  O379  1  0.49020000  0.12860000  0.96610000  1.0
  O  O380  1  0.57110000  0.12830000  0.92080000  1.0
  O  O381  1  0.39920000  0.08940000  0.83020000  1.0
  O  O382  1  0.40270000  0.13350000  0.01650000  1.0
  O  O383  1  0.60180000  0.20450000  0.84880000  1.0
  O  O384  1  0.50740000  0.18070000  0.79870000  1.0
  O  O385  1  0.60050000  0.22870000  0.94850000  1.0
  O  O386  1  0.49040000  0.15390000  0.06130000  1.0
  O  O387  1  0.49650000  0.23240000  0.00370000  1.0
  O  O388  1  0.65990000  0.15130000  0.96740000  1.0
  O  O389  1  0.50920000  0.19510000  0.90460000  1.0
  O  O390  1  0.58050000  0.09210000  0.82100000  1.0
  O  O391  1  0.46380000  0.02950000  0.94240000  1.0
  O  O392  1  0.56250000  0.02850000  0.87970000  1.0
  O  O393  1  0.52800000  0.29060000  0.93280000  1.0
  O  O394  1  0.41960000  0.21330000  0.96360000  1.0
  O  O395  1  0.41770000  0.18460000  0.85060000  1.0
  O  O396  1  0.63830000  0.05450000  0.93560000  1.0
  O  O397  1  0.47020000  0.01530000  0.84780000  1.0
  O  O398  1  0.49120000  0.08590000  0.78110000  1.0
  O  O399  1  0.44140000  0.26910000  0.88700000  1.0
  O  O400  1  0.65700000  0.12630000  0.87020000  1.0
  O  O401  1  0.48900000  0.10920000  0.87740000  1.0
  O  O402  1  0.10560000  0.89400000  0.42540000  1.0
  O  O403  1  0.18360000  0.81110000  0.40840000  1.0
  O  O404  1  0.40410000  0.75120000  0.43560000  1.0
  O  O405  1  0.18640000  0.86060000  0.34520000  1.0
  O  O406  1  0.40340000  0.81610000  0.26650000  1.0
  O  O407  1  0.33210000  0.72150000  0.46120000  1.0
  O  O408  1  0.33450000  0.85050000  0.23850000  1.0
  O  O409  1  0.94190000  0.94890000  0.49140000  1.0
  O  O410  1  0.97120000  0.73120000  0.33820000  1.0
  O  O411  1  0.92080000  0.85200000  0.52250000  1.0
  O  O412  1  0.03200000  0.94070000  0.53580000  1.0
  O  O413  1  0.00980000  0.87140000  0.46610000  1.0
  O  O414  1  0.92890000  0.87170000  0.42080000  1.0
  O  O415  1  0.10080000  0.91060000  0.33020000  1.0
  O  O416  1  0.09730000  0.86650000  0.51650000  1.0
  O  O417  1  0.89820000  0.79550000  0.34880000  1.0
  O  O418  1  0.99260000  0.81930000  0.29870000  1.0
  O  O419  1  0.89950000  0.77130000  0.44850000  1.0
  O  O420  1  0.00960000  0.84610000  0.56130000  1.0
  O  O421  1  0.00350000  0.76760000  0.50370000  1.0
  O  O422  1  0.84010000  0.84870000  0.46740000  1.0
  O  O423  1  0.99080000  0.80490000  0.40460000  1.0
  O  O424  1  0.91950000  0.90790000  0.32100000  1.0
  O  O425  1  0.03620000  0.97050000  0.44240000  1.0
  O  O426  1  0.93750000  0.97150000  0.37970000  1.0
  O  O427  1  0.97200000  0.70940000  0.43280000  1.0
  O  O428  1  0.08040000  0.78670000  0.46360000  1.0
  O  O429  1  0.08230000  0.81540000  0.35060000  1.0
  O  O430  1  0.86170000  0.94550000  0.43560000  1.0
  O  O431  1  0.02980000  0.98470000  0.34780000  1.0
  O  O432  1  0.00880000  0.91410000  0.28110000  1.0
  O  O433  1  0.05860000  0.73090000  0.38700000  1.0
  O  O434  1  0.84300000  0.87370000  0.37020000  1.0
  O  O435  1  0.01100000  0.89080000  0.37740000  1.0
  O  O436  1  0.60560000  0.60600000  0.57460000  1.0
  O  O437  1  0.68360000  0.68890000  0.59160000  1.0
  O  O438  1  0.90410000  0.74880000  0.56440000  1.0
  O  O439  1  0.68640000  0.63940000  0.65480000  1.0
  O  O440  1  0.90340000  0.68390000  0.73350000  1.0
  O  O441  1  0.83210000  0.77850000  0.53880000  1.0
  O  O442  1  0.83450000  0.64950000  0.76150000  1.0
  O  O443  1  0.44190000  0.55110000  0.50860000  1.0
  O  O444  1  0.47120000  0.76880000  0.66180000  1.0
  O  O445  1  0.42080000  0.64800000  0.47750000  1.0
  O  O446  1  0.53200000  0.55930000  0.46420000  1.0
  O  O447  1  0.50980000  0.62860000  0.53390000  1.0
  O  O448  1  0.42890000  0.62830000  0.57920000  1.0
  O  O449  1  0.60080000  0.58940000  0.66980000  1.0
  O  O450  1  0.59730000  0.63350000  0.48350000  1.0
  O  O451  1  0.39820000  0.70450000  0.65120000  1.0
  O  O452  1  0.49260000  0.68070000  0.70130000  1.0
  O  O453  1  0.39950000  0.72870000  0.55150000  1.0
  O  O454  1  0.50960000  0.65390000  0.43870000  1.0
  O  O455  1  0.50350000  0.73240000  0.49630000  1.0
  O  O456  1  0.34010000  0.65130000  0.53260000  1.0
  O  O457  1  0.49080000  0.69510000  0.59540000  1.0
  O  O458  1  0.41950000  0.59210000  0.67900000  1.0
  O  O459  1  0.53620000  0.52950000  0.55760000  1.0
  O  O460  1  0.43750000  0.52850000  0.62030000  1.0
  O  O461  1  0.47200000  0.79060000  0.56720000  1.0
  O  O462  1  0.58040000  0.71330000  0.53640000  1.0
  O  O463  1  0.58230000  0.68460000  0.64940000  1.0
  O  O464  1  0.36170000  0.55450000  0.56440000  1.0
  O  O465  1  0.52980000  0.51530000  0.65220000  1.0
  O  O466  1  0.50880000  0.58590000  0.71890000  1.0
  O  O467  1  0.55860000  0.76910000  0.61300000  1.0
  O  O468  1  0.34300000  0.62630000  0.62980000  1.0
  O  O469  1  0.51100000  0.60920000  0.62260000  1.0
  O  O470  1  0.89440000  0.39400000  0.07460000  1.0
  O  O471  1  0.81640000  0.31110000  0.09160000  1.0
  O  O472  1  0.59590000  0.25120000  0.06440000  1.0
  O  O473  1  0.81360000  0.36060000  0.15480000  1.0
  O  O474  1  0.59660000  0.31610000  0.23350000  1.0
  O  O475  1  0.66790000  0.22150000  0.03880000  1.0
  O  O476  1  0.66550000  0.35050000  0.26150000  1.0
  O  O477  1  0.05810000  0.44890000  0.00860000  1.0
  O  O478  1  0.02880000  0.23120000  0.16180000  1.0
  O  O479  1  0.07920000  0.35200000  0.97750000  1.0
  O  O480  1  0.96800000  0.44070000  0.96420000  1.0
  O  O481  1  0.99020000  0.37140000  0.03390000  1.0
  O  O482  1  0.07110000  0.37170000  0.07920000  1.0
  O  O483  1  0.89920000  0.41060000  0.16980000  1.0
  O  O484  1  0.90270000  0.36650000  0.98350000  1.0
  O  O485  1  0.10180000  0.29550000  0.15120000  1.0
  O  O486  1  0.00740000  0.31930000  0.20130000  1.0
  O  O487  1  0.10050000  0.27130000  0.05150000  1.0
  O  O488  1  0.99040000  0.34610000  0.93870000  1.0
  O  O489  1  0.99650000  0.26760000  0.99630000  1.0
  O  O490  1  0.15990000  0.34870000  0.03260000  1.0
  O  O491  1  0.00920000  0.30490000  0.09540000  1.0
  O  O492  1  0.08050000  0.40790000  0.17900000  1.0
  O  O493  1  0.96380000  0.47050000  0.05760000  1.0
  O  O494  1  0.06250000  0.47150000  0.12030000  1.0
  O  O495  1  0.02800000  0.20940000  0.06720000  1.0
  O  O496  1  0.91960000  0.28670000  0.03640000  1.0
  O  O497  1  0.91770000  0.31540000  0.14940000  1.0
  O  O498  1  0.13830000  0.44550000  0.06440000  1.0
  O  O499  1  0.97020000  0.48470000  0.15220000  1.0
  O  O500  1  0.99120000  0.41410000  0.21890000  1.0
  O  O501  1  0.94140000  0.23090000  0.11300000  1.0
  O  O502  1  0.15700000  0.37370000  0.12980000  1.0
  O  O503  1  0.98900000  0.39080000  0.12260000  1.0
