# generated using pymatgen
data_UHC5O4
_symmetry_space_group_name_H-M   'P 1'
_cell_length_a   9.97360000
_cell_length_b   12.70510000
_cell_length_c   12.84890000
_cell_angle_alpha   90.00000000
_cell_angle_beta   90.00000000
_cell_angle_gamma   90.00000000
_symmetry_Int_Tables_number   1
_chemical_formula_structural   UHC5O4
_chemical_formula_sum   'U8 H8 C40 O32'
_cell_volume   1628.15588473
_cell_formula_units_Z   8
loop_
 _symmetry_equiv_pos_site_id
 _symmetry_equiv_pos_as_xyz
  1  'x, y, z'
loop_
 _atom_site_type_symbol
 _atom_site_label
 _atom_site_symmetry_multiplicity
 _atom_site_fract_x
 _atom_site_fract_y
 _atom_site_fract_z
 _atom_site_occupancy
  U  U0  1  0.59489000  0.18686000  0.20140000  1.0
  U  U1  1  0.09489000  0.31314000  0.29860000  1.0
  U  U2  1  0.90511000  0.18686000  0.79860000  1.0
  U  U3  1  0.40511000  0.31314000  0.70140000  1.0
  U  U4  1  0.40511000  0.81314000  0.79860000  1.0
  U  U5  1  0.90511000  0.68686000  0.70140000  1.0
  U  U6  1  0.09489000  0.81314000  0.20140000  1.0
  U  U7  1  0.59489000  0.68686000  0.29860000  1.0
  H  H8  1  0.84950000  0.93810000  0.37770000  1.0
  H  H9  1  0.34950000  0.56190000  0.12230000  1.0
  H  H10  1  0.65050000  0.93810000  0.62230000  1.0
  H  H11  1  0.15050000  0.56190000  0.87770000  1.0
  H  H12  1  0.15050000  0.06190000  0.62230000  1.0
  H  H13  1  0.65050000  0.43810000  0.87770000  1.0
  H  H14  1  0.34950000  0.06190000  0.37770000  1.0
  H  H15  1  0.84950000  0.43810000  0.12230000  1.0
  C  C16  1  0.84520000  0.14180000  0.36960000  1.0
  C  C17  1  0.03060000  0.22250000  0.54580000  1.0
  C  C18  1  0.01630000  0.10860000  0.51440000  1.0
  C  C19  1  0.92550000  0.07130000  0.43970000  1.0
  C  C20  1  0.91020000  0.96310000  0.42680000  1.0
  C  C21  1  0.34520000  0.35820000  0.13040000  1.0
  C  C22  1  0.53060000  0.27750000  0.95420000  1.0
  C  C23  1  0.51630000  0.39140000  0.98560000  1.0
  C  C24  1  0.42550000  0.42870000  0.06030000  1.0
  C  C25  1  0.41020000  0.53690000  0.07320000  1.0
  C  C26  1  0.65480000  0.14180000  0.63040000  1.0
  C  C27  1  0.46940000  0.22250000  0.45420000  1.0
  C  C28  1  0.48370000  0.10860000  0.48560000  1.0
  C  C29  1  0.57450000  0.07130000  0.56030000  1.0
  C  C30  1  0.58980000  0.96310000  0.57320000  1.0
  C  C31  1  0.15480000  0.35820000  0.86960000  1.0
  C  C32  1  0.96940000  0.27750000  0.04580000  1.0
  C  C33  1  0.98370000  0.39140000  0.01440000  1.0
  C  C34  1  0.07450000  0.42870000  0.93970000  1.0
  C  C35  1  0.08980000  0.53690000  0.92680000  1.0
  C  C36  1  0.15480000  0.85820000  0.63040000  1.0
  C  C37  1  0.96940000  0.77750000  0.45420000  1.0
  C  C38  1  0.98370000  0.89140000  0.48560000  1.0
  C  C39  1  0.07450000  0.92870000  0.56030000  1.0
  C  C40  1  0.08980000  0.03690000  0.57320000  1.0
  C  C41  1  0.65480000  0.64180000  0.86960000  1.0
  C  C42  1  0.46940000  0.72250000  0.04580000  1.0
  C  C43  1  0.48370000  0.60860000  0.01440000  1.0
  C  C44  1  0.57450000  0.57130000  0.93970000  1.0
  C  C45  1  0.58980000  0.46310000  0.92680000  1.0
  C  C46  1  0.34520000  0.85820000  0.36960000  1.0
  C  C47  1  0.53060000  0.77750000  0.54580000  1.0
  C  C48  1  0.51630000  0.89140000  0.51440000  1.0
  C  C49  1  0.42550000  0.92870000  0.43970000  1.0
  C  C50  1  0.41020000  0.03690000  0.42680000  1.0
  C  C51  1  0.84520000  0.64180000  0.13040000  1.0
  C  C52  1  0.03060000  0.72250000  0.95420000  1.0
  C  C53  1  0.01630000  0.60860000  0.98560000  1.0
  C  C54  1  0.92550000  0.57130000  0.06030000  1.0
  C  C55  1  0.91020000  0.46310000  0.07320000  1.0
  O  O56  1  0.73310000  0.11023000  0.33834000  1.0
  O  O57  1  0.07850000  0.29115000  0.48574000  1.0
  O  O58  1  0.99960000  0.24492000  0.63774000  1.0
  O  O59  1  0.89370000  0.23010000  0.34440000  1.0
  O  O60  1  0.23310000  0.38977000  0.16166000  1.0
  O  O61  1  0.57850000  0.20885000  0.01426000  1.0
  O  O62  1  0.49960000  0.25508000  0.86226000  1.0
  O  O63  1  0.39370000  0.26990000  0.15560000  1.0
  O  O64  1  0.76690000  0.11023000  0.66166000  1.0
  O  O65  1  0.42150000  0.29115000  0.51426000  1.0
  O  O66  1  0.50040000  0.24492000  0.36226000  1.0
  O  O67  1  0.60630000  0.23010000  0.65560000  1.0
  O  O68  1  0.26690000  0.38977000  0.83834000  1.0
  O  O69  1  0.92150000  0.20885000  0.98574000  1.0
  O  O70  1  0.00040000  0.25508000  0.13774000  1.0
  O  O71  1  0.10630000  0.26990000  0.84440000  1.0
  O  O72  1  0.26690000  0.88977000  0.66166000  1.0
  O  O73  1  0.92150000  0.70885000  0.51426000  1.0
  O  O74  1  0.00040000  0.75508000  0.36226000  1.0
  O  O75  1  0.10630000  0.76990000  0.65560000  1.0
  O  O76  1  0.76690000  0.61023000  0.83834000  1.0
  O  O77  1  0.42150000  0.79115000  0.98574000  1.0
  O  O78  1  0.50040000  0.74492000  0.13774000  1.0
  O  O79  1  0.60630000  0.73010000  0.84440000  1.0
  O  O80  1  0.23310000  0.88977000  0.33834000  1.0
  O  O81  1  0.57850000  0.70885000  0.48574000  1.0
  O  O82  1  0.49960000  0.75508000  0.63774000  1.0
  O  O83  1  0.39370000  0.76990000  0.34440000  1.0
  O  O84  1  0.73310000  0.61023000  0.16166000  1.0
  O  O85  1  0.07850000  0.79115000  0.01426000  1.0
  O  O86  1  0.99960000  0.74492000  0.86226000  1.0
  O  O87  1  0.89370000  0.73010000  0.15560000  1.0
