# generated using pymatgen
data_ZnH16C24NO5
_symmetry_space_group_name_H-M   'P 1'
_cell_length_a   15.18690000
_cell_length_b   24.15870000
_cell_length_c   15.85110000
_cell_angle_alpha   90.00000000
_cell_angle_beta   111.14100000
_cell_angle_gamma   90.00000000
_symmetry_Int_Tables_number   1
_chemical_formula_structural   ZnH16C24NO5
_chemical_formula_sum   'Zn8 H128 C192 N8 O40'
_cell_volume   5424.27961437
_cell_formula_units_Z   8
loop_
 _symmetry_equiv_pos_site_id
 _symmetry_equiv_pos_as_xyz
  1  'x, y, z'
loop_
 _atom_site_type_symbol
 _atom_site_label
 _atom_site_symmetry_multiplicity
 _atom_site_fract_x
 _atom_site_fract_y
 _atom_site_fract_z
 _atom_site_occupancy
  Zn  Zn0  1  0.57358000  0.48734000  0.36179000  1.0
  Zn  Zn1  1  0.07358000  0.98734000  0.36179000  1.0
  Zn  Zn2  1  0.42642000  0.48734000  0.13821000  1.0
  Zn  Zn3  1  0.92642000  0.98734000  0.13821000  1.0
  Zn  Zn4  1  0.42642000  0.51266000  0.63821000  1.0
  Zn  Zn5  1  0.92642000  0.01266000  0.63821000  1.0
  Zn  Zn6  1  0.57358000  0.51266000  0.86179000  1.0
  Zn  Zn7  1  0.07358000  0.01266000  0.86179000  1.0
  H  H8  1  0.55880000  0.44050000  0.53180000  1.0
  H  H9  1  0.64960000  0.42880000  0.68160000  1.0
  H  H10  1  0.87420000  0.48190000  0.62480000  1.0
  H  H11  1  0.77760000  0.49030000  0.47540000  1.0
  H  H12  1  0.80880000  0.43160000  0.80560000  1.0
  H  H13  1  0.92270000  0.51140000  0.77100000  1.0
  H  H14  1  0.01130000  0.56850000  0.90070000  1.0
  H  H15  1  0.90950000  0.42120000  0.94480000  1.0
  H  H16  1  0.72250000  0.66130000  0.33930000  1.0
  H  H17  1  0.72170000  0.75800000  0.33910000  1.0
  H  H18  1  0.47490000  0.75690000  0.38200000  1.0
  H  H19  1  0.47360000  0.66070000  0.37650000  1.0
  H  H20  1  0.71960000  0.89950000  0.18170000  1.0
  H  H21  1  0.59880000  0.85310000  0.21110000  1.0
  H  H22  1  0.74690000  0.86270000  0.47770000  1.0
  H  H23  1  0.86810000  0.90780000  0.44840000  1.0
  H  H24  1  0.05880000  0.94050000  0.53180000  1.0
  H  H25  1  0.14960000  0.92880000  0.68160000  1.0
  H  H26  1  0.37420000  0.98190000  0.62480000  1.0
  H  H27  1  0.27760000  0.99030000  0.47540000  1.0
  H  H28  1  0.30880000  0.93160000  0.80560000  1.0
  H  H29  1  0.42270000  0.01140000  0.77100000  1.0
  H  H30  1  0.51130000  0.06850000  0.90070000  1.0
  H  H31  1  0.40950000  0.92120000  0.94480000  1.0
  H  H32  1  0.22250000  0.16130000  0.33930000  1.0
  H  H33  1  0.22170000  0.25800000  0.33910000  1.0
  H  H34  1  0.97490000  0.25690000  0.38200000  1.0
  H  H35  1  0.97360000  0.16070000  0.37650000  1.0
  H  H36  1  0.21960000  0.39950000  0.18170000  1.0
  H  H37  1  0.09880000  0.35310000  0.21110000  1.0
  H  H38  1  0.24690000  0.36270000  0.47770000  1.0
  H  H39  1  0.36810000  0.40780000  0.44840000  1.0
  H  H40  1  0.44120000  0.44050000  0.96820000  1.0
  H  H41  1  0.35040000  0.42880000  0.81840000  1.0
  H  H42  1  0.12580000  0.48190000  0.87520000  1.0
  H  H43  1  0.22240000  0.49030000  0.02460000  1.0
  H  H44  1  0.19120000  0.43160000  0.69440000  1.0
  H  H45  1  0.07730000  0.51140000  0.72900000  1.0
  H  H46  1  0.98870000  0.56850000  0.59930000  1.0
  H  H47  1  0.09050000  0.42120000  0.55520000  1.0
  H  H48  1  0.27750000  0.66130000  0.16070000  1.0
  H  H49  1  0.27830000  0.75800000  0.16090000  1.0
  H  H50  1  0.52510000  0.75690000  0.11800000  1.0
  H  H51  1  0.52640000  0.66070000  0.12350000  1.0
  H  H52  1  0.28040000  0.89950000  0.31830000  1.0
  H  H53  1  0.40120000  0.85310000  0.28890000  1.0
  H  H54  1  0.25310000  0.86270000  0.02230000  1.0
  H  H55  1  0.13190000  0.90780000  0.05160000  1.0
  H  H56  1  0.94120000  0.94050000  0.96820000  1.0
  H  H57  1  0.85040000  0.92880000  0.81840000  1.0
  H  H58  1  0.62580000  0.98190000  0.87520000  1.0
  H  H59  1  0.72240000  0.99030000  0.02460000  1.0
  H  H60  1  0.69120000  0.93160000  0.69440000  1.0
  H  H61  1  0.57730000  0.01140000  0.72900000  1.0
  H  H62  1  0.48870000  0.06850000  0.59930000  1.0
  H  H63  1  0.59050000  0.92120000  0.55520000  1.0
  H  H64  1  0.77750000  0.16130000  0.16070000  1.0
  H  H65  1  0.77830000  0.25800000  0.16090000  1.0
  H  H66  1  0.02510000  0.25690000  0.11800000  1.0
  H  H67  1  0.02640000  0.16070000  0.12350000  1.0
  H  H68  1  0.78040000  0.39950000  0.31830000  1.0
  H  H69  1  0.90120000  0.35310000  0.28890000  1.0
  H  H70  1  0.75310000  0.36270000  0.02230000  1.0
  H  H71  1  0.63190000  0.40780000  0.05160000  1.0
  H  H72  1  0.44120000  0.55950000  0.46820000  1.0
  H  H73  1  0.35040000  0.57120000  0.31840000  1.0
  H  H74  1  0.12580000  0.51810000  0.37520000  1.0
  H  H75  1  0.22240000  0.50970000  0.52460000  1.0
  H  H76  1  0.19120000  0.56840000  0.19440000  1.0
  H  H77  1  0.07730000  0.48860000  0.22900000  1.0
  H  H78  1  0.98870000  0.43150000  0.09930000  1.0
  H  H79  1  0.09050000  0.57880000  0.05520000  1.0
  H  H80  1  0.27750000  0.33870000  0.66070000  1.0
  H  H81  1  0.27830000  0.24200000  0.66090000  1.0
  H  H82  1  0.52510000  0.24310000  0.61800000  1.0
  H  H83  1  0.52640000  0.33930000  0.62350000  1.0
  H  H84  1  0.28040000  0.10050000  0.81830000  1.0
  H  H85  1  0.40120000  0.14690000  0.78890000  1.0
  H  H86  1  0.25310000  0.13730000  0.52230000  1.0
  H  H87  1  0.13190000  0.09220000  0.55160000  1.0
  H  H88  1  0.94120000  0.05950000  0.46820000  1.0
  H  H89  1  0.85040000  0.07120000  0.31840000  1.0
  H  H90  1  0.62580000  0.01810000  0.37520000  1.0
  H  H91  1  0.72240000  0.00970000  0.52460000  1.0
  H  H92  1  0.69120000  0.06840000  0.19440000  1.0
  H  H93  1  0.57730000  0.98860000  0.22900000  1.0
  H  H94  1  0.48870000  0.93150000  0.09930000  1.0
  H  H95  1  0.59050000  0.07880000  0.05520000  1.0
  H  H96  1  0.77750000  0.83870000  0.66070000  1.0
  H  H97  1  0.77830000  0.74200000  0.66090000  1.0
  H  H98  1  0.02510000  0.74310000  0.61800000  1.0
  H  H99  1  0.02640000  0.83930000  0.62350000  1.0
  H  H100  1  0.78040000  0.60050000  0.81830000  1.0
  H  H101  1  0.90120000  0.64690000  0.78890000  1.0
  H  H102  1  0.75310000  0.63730000  0.52230000  1.0
  H  H103  1  0.63190000  0.59220000  0.55160000  1.0
  H  H104  1  0.55880000  0.55950000  0.03180000  1.0
  H  H105  1  0.64960000  0.57120000  0.18160000  1.0
  H  H106  1  0.87420000  0.51810000  0.12480000  1.0
  H  H107  1  0.77760000  0.50970000  0.97540000  1.0
  H  H108  1  0.80880000  0.56840000  0.30560000  1.0
  H  H109  1  0.92270000  0.48860000  0.27100000  1.0
  H  H110  1  0.01130000  0.43150000  0.40070000  1.0
  H  H111  1  0.90950000  0.57880000  0.44480000  1.0
  H  H112  1  0.72250000  0.33870000  0.83930000  1.0
  H  H113  1  0.72170000  0.24200000  0.83910000  1.0
  H  H114  1  0.47490000  0.24310000  0.88200000  1.0
  H  H115  1  0.47360000  0.33930000  0.87650000  1.0
  H  H116  1  0.71960000  0.10050000  0.68170000  1.0
  H  H117  1  0.59880000  0.14690000  0.71110000  1.0
  H  H118  1  0.74690000  0.13730000  0.97770000  1.0
  H  H119  1  0.86810000  0.09220000  0.94840000  1.0
  H  H120  1  0.05880000  0.05950000  0.03180000  1.0
  H  H121  1  0.14960000  0.07120000  0.18160000  1.0
  H  H122  1  0.37420000  0.01810000  0.12480000  1.0
  H  H123  1  0.27760000  0.00970000  0.97540000  1.0
  H  H124  1  0.30880000  0.06840000  0.30560000  1.0
  H  H125  1  0.42270000  0.98860000  0.27100000  1.0
  H  H126  1  0.51130000  0.93150000  0.40070000  1.0
  H  H127  1  0.40950000  0.07880000  0.44480000  1.0
  H  H128  1  0.22250000  0.83870000  0.83930000  1.0
  H  H129  1  0.22170000  0.74200000  0.83910000  1.0
  H  H130  1  0.97490000  0.74310000  0.88200000  1.0
  H  H131  1  0.97360000  0.83930000  0.87650000  1.0
  H  H132  1  0.21960000  0.60050000  0.68170000  1.0
  H  H133  1  0.09880000  0.64690000  0.71110000  1.0
  H  H134  1  0.24690000  0.63730000  0.97770000  1.0
  H  H135  1  0.36810000  0.59220000  0.94840000  1.0
  C  C136  1  0.62400000  0.44950000  0.55120000  1.0
  C  C137  1  0.67720000  0.44280000  0.64090000  1.0
  C  C138  1  0.77280000  0.45670000  0.67170000  1.0
  C  C139  1  0.80890000  0.47360000  0.60730000  1.0
  C  C140  1  0.75080000  0.47860000  0.51820000  1.0
  C  C141  1  0.82730000  0.45660000  0.76880000  1.0
  C  C142  1  0.90100000  0.48920000  0.80890000  1.0
  C  C143  1  0.95160000  0.49380000  0.90650000  1.0
  C  C144  1  0.00640000  0.54050000  0.94090000  1.0
  C  C145  1  0.94630000  0.45350000  0.96710000  1.0
  C  C146  1  0.59950000  0.59050000  0.35700000  1.0
  C  C147  1  0.59800000  0.65190000  0.35740000  1.0
  C  C148  1  0.67170000  0.68070000  0.34700000  1.0
  C  C149  1  0.67180000  0.73810000  0.34790000  1.0
  C  C150  1  0.59930000  0.76600000  0.36160000  1.0
  C  C151  1  0.52490000  0.73750000  0.37270000  1.0
  C  C152  1  0.52470000  0.68060000  0.36980000  1.0
  C  C153  1  0.88430000  0.93520000  0.29250000  1.0
  C  C154  1  0.80640000  0.90730000  0.31120000  1.0
  C  C155  1  0.72620000  0.89160000  0.24230000  1.0
  C  C156  1  0.65430000  0.86410000  0.25940000  1.0
  C  C157  1  0.66500000  0.85310000  0.34740000  1.0
  C  C158  1  0.74200000  0.86960000  0.41710000  1.0
  C  C159  1  0.81330000  0.89650000  0.39950000  1.0
  C  C160  1  0.12400000  0.94950000  0.55120000  1.0
  C  C161  1  0.17720000  0.94280000  0.64090000  1.0
  C  C162  1  0.27280000  0.95670000  0.67170000  1.0
  C  C163  1  0.30890000  0.97360000  0.60730000  1.0
  C  C164  1  0.25080000  0.97860000  0.51820000  1.0
  C  C165  1  0.32730000  0.95660000  0.76880000  1.0
  C  C166  1  0.40100000  0.98920000  0.80890000  1.0
  C  C167  1  0.45160000  0.99380000  0.90650000  1.0
  C  C168  1  0.50640000  0.04050000  0.94090000  1.0
  C  C169  1  0.44630000  0.95350000  0.96710000  1.0
  C  C170  1  0.09950000  0.09050000  0.35700000  1.0
  C  C171  1  0.09800000  0.15190000  0.35740000  1.0
  C  C172  1  0.17170000  0.18070000  0.34700000  1.0
  C  C173  1  0.17180000  0.23810000  0.34790000  1.0
  C  C174  1  0.09930000  0.26600000  0.36160000  1.0
  C  C175  1  0.02490000  0.23750000  0.37270000  1.0
  C  C176  1  0.02470000  0.18060000  0.36980000  1.0
  C  C177  1  0.38430000  0.43520000  0.29250000  1.0
  C  C178  1  0.30640000  0.40730000  0.31120000  1.0
  C  C179  1  0.22620000  0.39160000  0.24230000  1.0
  C  C180  1  0.15430000  0.36410000  0.25940000  1.0
  C  C181  1  0.16500000  0.35310000  0.34740000  1.0
  C  C182  1  0.24200000  0.36960000  0.41710000  1.0
  C  C183  1  0.31330000  0.39650000  0.39950000  1.0
  C  C184  1  0.37600000  0.44950000  0.94880000  1.0
  C  C185  1  0.32280000  0.44280000  0.85910000  1.0
  C  C186  1  0.22720000  0.45670000  0.82830000  1.0
  C  C187  1  0.19110000  0.47360000  0.89270000  1.0
  C  C188  1  0.24920000  0.47860000  0.98180000  1.0
  C  C189  1  0.17270000  0.45660000  0.73120000  1.0
  C  C190  1  0.09900000  0.48920000  0.69110000  1.0
  C  C191  1  0.04840000  0.49380000  0.59350000  1.0
  C  C192  1  0.99360000  0.54050000  0.55910000  1.0
  C  C193  1  0.05370000  0.45350000  0.53290000  1.0
  C  C194  1  0.40050000  0.59050000  0.14300000  1.0
  C  C195  1  0.40200000  0.65190000  0.14260000  1.0
  C  C196  1  0.32830000  0.68070000  0.15300000  1.0
  C  C197  1  0.32820000  0.73810000  0.15210000  1.0
  C  C198  1  0.40070000  0.76600000  0.13840000  1.0
  C  C199  1  0.47510000  0.73750000  0.12730000  1.0
  C  C200  1  0.47530000  0.68060000  0.13020000  1.0
  C  C201  1  0.11570000  0.93520000  0.20750000  1.0
  C  C202  1  0.19360000  0.90730000  0.18880000  1.0
  C  C203  1  0.27380000  0.89160000  0.25770000  1.0
  C  C204  1  0.34570000  0.86410000  0.24060000  1.0
  C  C205  1  0.33500000  0.85310000  0.15260000  1.0
  C  C206  1  0.25800000  0.86960000  0.08290000  1.0
  C  C207  1  0.18670000  0.89650000  0.10050000  1.0
  C  C208  1  0.87600000  0.94950000  0.94880000  1.0
  C  C209  1  0.82280000  0.94280000  0.85910000  1.0
  C  C210  1  0.72720000  0.95670000  0.82830000  1.0
  C  C211  1  0.69110000  0.97360000  0.89270000  1.0
  C  C212  1  0.74920000  0.97860000  0.98180000  1.0
  C  C213  1  0.67270000  0.95660000  0.73120000  1.0
  C  C214  1  0.59900000  0.98920000  0.69110000  1.0
  C  C215  1  0.54840000  0.99380000  0.59350000  1.0
  C  C216  1  0.49360000  0.04050000  0.55910000  1.0
  C  C217  1  0.55370000  0.95350000  0.53290000  1.0
  C  C218  1  0.90050000  0.09050000  0.14300000  1.0
  C  C219  1  0.90200000  0.15190000  0.14260000  1.0
  C  C220  1  0.82830000  0.18070000  0.15300000  1.0
  C  C221  1  0.82820000  0.23810000  0.15210000  1.0
  C  C222  1  0.90070000  0.26600000  0.13840000  1.0
  C  C223  1  0.97510000  0.23750000  0.12730000  1.0
  C  C224  1  0.97530000  0.18060000  0.13020000  1.0
  C  C225  1  0.61570000  0.43520000  0.20750000  1.0
  C  C226  1  0.69360000  0.40730000  0.18880000  1.0
  C  C227  1  0.77380000  0.39160000  0.25770000  1.0
  C  C228  1  0.84570000  0.36410000  0.24060000  1.0
  C  C229  1  0.83500000  0.35310000  0.15260000  1.0
  C  C230  1  0.75800000  0.36960000  0.08290000  1.0
  C  C231  1  0.68670000  0.39650000  0.10050000  1.0
  C  C232  1  0.37600000  0.55050000  0.44880000  1.0
  C  C233  1  0.32280000  0.55720000  0.35910000  1.0
  C  C234  1  0.22720000  0.54330000  0.32830000  1.0
  C  C235  1  0.19110000  0.52640000  0.39270000  1.0
  C  C236  1  0.24920000  0.52140000  0.48180000  1.0
  C  C237  1  0.17270000  0.54340000  0.23120000  1.0
  C  C238  1  0.09900000  0.51080000  0.19110000  1.0
  C  C239  1  0.04840000  0.50620000  0.09350000  1.0
  C  C240  1  0.99360000  0.45950000  0.05910000  1.0
  C  C241  1  0.05370000  0.54650000  0.03290000  1.0
  C  C242  1  0.40050000  0.40950000  0.64300000  1.0
  C  C243  1  0.40200000  0.34810000  0.64260000  1.0
  C  C244  1  0.32830000  0.31930000  0.65300000  1.0
  C  C245  1  0.32820000  0.26190000  0.65210000  1.0
  C  C246  1  0.40070000  0.23400000  0.63840000  1.0
  C  C247  1  0.47510000  0.26250000  0.62730000  1.0
  C  C248  1  0.47530000  0.31940000  0.63020000  1.0
  C  C249  1  0.11570000  0.06480000  0.70750000  1.0
  C  C250  1  0.19360000  0.09270000  0.68880000  1.0
  C  C251  1  0.27380000  0.10840000  0.75770000  1.0
  C  C252  1  0.34570000  0.13590000  0.74060000  1.0
  C  C253  1  0.33500000  0.14690000  0.65260000  1.0
  C  C254  1  0.25800000  0.13040000  0.58290000  1.0
  C  C255  1  0.18670000  0.10350000  0.60050000  1.0
  C  C256  1  0.87600000  0.05050000  0.44880000  1.0
  C  C257  1  0.82280000  0.05720000  0.35910000  1.0
  C  C258  1  0.72720000  0.04330000  0.32830000  1.0
  C  C259  1  0.69110000  0.02640000  0.39270000  1.0
  C  C260  1  0.74920000  0.02140000  0.48180000  1.0
  C  C261  1  0.67270000  0.04340000  0.23120000  1.0
  C  C262  1  0.59900000  0.01080000  0.19110000  1.0
  C  C263  1  0.54840000  0.00620000  0.09350000  1.0
  C  C264  1  0.49360000  0.95950000  0.05910000  1.0
  C  C265  1  0.55370000  0.04650000  0.03290000  1.0
  C  C266  1  0.90050000  0.90950000  0.64300000  1.0
  C  C267  1  0.90200000  0.84810000  0.64260000  1.0
  C  C268  1  0.82830000  0.81930000  0.65300000  1.0
  C  C269  1  0.82820000  0.76190000  0.65210000  1.0
  C  C270  1  0.90070000  0.73400000  0.63840000  1.0
  C  C271  1  0.97510000  0.76250000  0.62730000  1.0
  C  C272  1  0.97530000  0.81940000  0.63020000  1.0
  C  C273  1  0.61570000  0.56480000  0.70750000  1.0
  C  C274  1  0.69360000  0.59270000  0.68880000  1.0
  C  C275  1  0.77380000  0.60840000  0.75770000  1.0
  C  C276  1  0.84570000  0.63590000  0.74060000  1.0
  C  C277  1  0.83500000  0.64690000  0.65260000  1.0
  C  C278  1  0.75800000  0.63040000  0.58290000  1.0
  C  C279  1  0.68670000  0.60350000  0.60050000  1.0
  C  C280  1  0.62400000  0.55050000  0.05120000  1.0
  C  C281  1  0.67720000  0.55720000  0.14090000  1.0
  C  C282  1  0.77280000  0.54330000  0.17170000  1.0
  C  C283  1  0.80890000  0.52640000  0.10730000  1.0
  C  C284  1  0.75080000  0.52140000  0.01820000  1.0
  C  C285  1  0.82730000  0.54340000  0.26880000  1.0
  C  C286  1  0.90100000  0.51080000  0.30890000  1.0
  C  C287  1  0.95160000  0.50620000  0.40650000  1.0
  C  C288  1  0.00640000  0.45950000  0.44090000  1.0
  C  C289  1  0.94630000  0.54650000  0.46710000  1.0
  C  C290  1  0.59950000  0.40950000  0.85700000  1.0
  C  C291  1  0.59800000  0.34810000  0.85740000  1.0
  C  C292  1  0.67170000  0.31930000  0.84700000  1.0
  C  C293  1  0.67180000  0.26190000  0.84790000  1.0
  C  C294  1  0.59930000  0.23400000  0.86160000  1.0
  C  C295  1  0.52490000  0.26250000  0.87270000  1.0
  C  C296  1  0.52470000  0.31940000  0.86980000  1.0
  C  C297  1  0.88430000  0.06480000  0.79250000  1.0
  C  C298  1  0.80640000  0.09270000  0.81120000  1.0
  C  C299  1  0.72620000  0.10840000  0.74230000  1.0
  C  C300  1  0.65430000  0.13590000  0.75940000  1.0
  C  C301  1  0.66500000  0.14690000  0.84740000  1.0
  C  C302  1  0.74200000  0.13040000  0.91710000  1.0
  C  C303  1  0.81330000  0.10350000  0.89950000  1.0
  C  C304  1  0.12400000  0.05050000  0.05120000  1.0
  C  C305  1  0.17720000  0.05720000  0.14090000  1.0
  C  C306  1  0.27280000  0.04330000  0.17170000  1.0
  C  C307  1  0.30890000  0.02640000  0.10730000  1.0
  C  C308  1  0.25080000  0.02140000  0.01820000  1.0
  C  C309  1  0.32730000  0.04340000  0.26880000  1.0
  C  C310  1  0.40100000  0.01080000  0.30890000  1.0
  C  C311  1  0.45160000  0.00620000  0.40650000  1.0
  C  C312  1  0.50640000  0.95950000  0.44090000  1.0
  C  C313  1  0.44630000  0.04650000  0.46710000  1.0
  C  C314  1  0.09950000  0.90950000  0.85700000  1.0
  C  C315  1  0.09800000  0.84810000  0.85740000  1.0
  C  C316  1  0.17170000  0.81930000  0.84700000  1.0
  C  C317  1  0.17180000  0.76190000  0.84790000  1.0
  C  C318  1  0.09930000  0.73400000  0.86160000  1.0
  C  C319  1  0.02490000  0.76250000  0.87270000  1.0
  C  C320  1  0.02470000  0.81940000  0.86980000  1.0
  C  C321  1  0.38430000  0.56480000  0.79250000  1.0
  C  C322  1  0.30640000  0.59270000  0.81120000  1.0
  C  C323  1  0.22620000  0.60840000  0.74230000  1.0
  C  C324  1  0.15430000  0.63590000  0.75940000  1.0
  C  C325  1  0.16500000  0.64690000  0.84740000  1.0
  C  C326  1  0.24200000  0.63040000  0.91710000  1.0
  C  C327  1  0.31330000  0.60350000  0.89950000  1.0
  N  N328  1  0.65800000  0.46782000  0.48880000  1.0
  N  N329  1  0.15800000  0.96782000  0.48880000  1.0
  N  N330  1  0.34200000  0.46782000  0.01120000  1.0
  N  N331  1  0.84200000  0.96782000  0.01120000  1.0
  N  N332  1  0.34200000  0.53218000  0.51120000  1.0
  N  N333  1  0.84200000  0.03218000  0.51120000  1.0
  N  N334  1  0.65800000  0.53218000  0.98880000  1.0
  N  N335  1  0.15800000  0.03218000  0.98880000  1.0
  O  O336  1  0.67140000  0.56556000  0.35700000  1.0
  O  O337  1  0.52740000  0.56422000  0.35770000  1.0
  O  O338  1  0.59340000  0.82411000  0.36510000  1.0
  O  O339  1  0.87000000  0.94646000  0.21150000  1.0
  O  O340  1  0.95950000  0.94544000  0.35740000  1.0
  O  O341  1  0.17140000  0.06556000  0.35700000  1.0
  O  O342  1  0.02740000  0.06422000  0.35770000  1.0
  O  O343  1  0.09340000  0.32411000  0.36510000  1.0
  O  O344  1  0.37000000  0.44646000  0.21150000  1.0
  O  O345  1  0.45950000  0.44544000  0.35740000  1.0
  O  O346  1  0.32860000  0.56556000  0.14300000  1.0
  O  O347  1  0.47260000  0.56422000  0.14230000  1.0
  O  O348  1  0.40660000  0.82411000  0.13490000  1.0
  O  O349  1  0.13000000  0.94646000  0.28850000  1.0
  O  O350  1  0.04050000  0.94544000  0.14260000  1.0
  O  O351  1  0.82860000  0.06556000  0.14300000  1.0
  O  O352  1  0.97260000  0.06422000  0.14230000  1.0
  O  O353  1  0.90660000  0.32411000  0.13490000  1.0
  O  O354  1  0.63000000  0.44646000  0.28850000  1.0
  O  O355  1  0.54050000  0.44544000  0.14260000  1.0
  O  O356  1  0.32860000  0.43444000  0.64300000  1.0
  O  O357  1  0.47260000  0.43578000  0.64230000  1.0
  O  O358  1  0.40660000  0.17589000  0.63490000  1.0
  O  O359  1  0.13000000  0.05354000  0.78850000  1.0
  O  O360  1  0.04050000  0.05456000  0.64260000  1.0
  O  O361  1  0.82860000  0.93444000  0.64300000  1.0
  O  O362  1  0.97260000  0.93578000  0.64230000  1.0
  O  O363  1  0.90660000  0.67589000  0.63490000  1.0
  O  O364  1  0.63000000  0.55354000  0.78850000  1.0
  O  O365  1  0.54050000  0.55456000  0.64260000  1.0
  O  O366  1  0.67140000  0.43444000  0.85700000  1.0
  O  O367  1  0.52740000  0.43578000  0.85770000  1.0
  O  O368  1  0.59340000  0.17589000  0.86510000  1.0
  O  O369  1  0.87000000  0.05354000  0.71150000  1.0
  O  O370  1  0.95950000  0.05456000  0.85740000  1.0
  O  O371  1  0.17140000  0.93444000  0.85700000  1.0
  O  O372  1  0.02740000  0.93578000  0.85770000  1.0
  O  O373  1  0.09340000  0.67589000  0.86510000  1.0
  O  O374  1  0.37000000  0.55354000  0.71150000  1.0
  O  O375  1  0.45950000  0.55456000  0.85740000  1.0
