# generated using pymatgen
data_Mn3H50C64N4O19
_symmetry_space_group_name_H-M   'P 1'
_cell_length_a   10.52110000
_cell_length_b   24.14890000
_cell_length_c   37.87710000
_cell_angle_alpha   88.26630000
_cell_angle_beta   82.01670000
_cell_angle_gamma   77.41810000
_symmetry_Int_Tables_number   1
_chemical_formula_structural   Mn3H50C64N4O19
_chemical_formula_sum   'Mn12 H200 C256 N16 O76'
_cell_volume   9301.41861257
_cell_formula_units_Z   4
loop_
 _symmetry_equiv_pos_site_id
 _symmetry_equiv_pos_as_xyz
  1  'x, y, z'
loop_
 _atom_site_type_symbol
 _atom_site_label
 _atom_site_symmetry_multiplicity
 _atom_site_fract_x
 _atom_site_fract_y
 _atom_site_fract_z
 _atom_site_occupancy
  Mn  Mn0  1  0.39068000  0.73654000  0.58676000  1.0
  Mn  Mn1  1  0.05843000  0.73202000  0.61748000  1.0
  Mn  Mn2  1  0.79919000  0.66961000  0.63657000  1.0
  Mn  Mn3  1  0.71398000  0.26346000  0.41324000  1.0
  Mn  Mn4  1  0.40793000  0.26798000  0.38252000  1.0
  Mn  Mn5  1  0.10537000  0.33039000  0.36343000  1.0
  Mn  Mn6  1  0.22744000  0.23654000  0.91324000  1.0
  Mn  Mn7  1  0.92591000  0.23202000  0.88252000  1.0
  Mn  Mn8  1  0.68576000  0.16961000  0.86343000  1.0
  Mn  Mn9  1  0.37722000  0.76346000  0.08676000  1.0
  Mn  Mn10  1  0.04045000  0.76798000  0.11748000  1.0
  Mn  Mn11  1  0.71880000  0.83039000  0.13657000  1.0
  H  H12  1  0.07870000  0.84880000  0.82960000  1.0
  H  H13  1  0.10980000  0.78180000  0.82980000  1.0
  H  H14  1  0.32330000  0.86940000  0.85220000  1.0
  H  H15  1  0.28850000  0.86740000  0.89400000  1.0
  H  H16  1  0.05200000  0.77900000  0.89680000  1.0
  H  H17  1  0.00830000  0.84540000  0.89400000  1.0
  H  H18  1  0.32930000  0.76440000  0.89460000  1.0
  H  H19  1  0.37330000  0.76460000  0.85340000  1.0
  H  H20  1  0.12420000  0.65720000  0.84060000  1.0
  H  H21  1  0.15210000  0.59120000  0.83500000  1.0
  H  H22  1  0.46110000  0.55820000  0.86960000  1.0
  H  H23  1  0.45050000  0.56860000  0.82880000  1.0
  H  H24  1  0.17210000  0.57660000  0.89640000  1.0
  H  H25  1  0.15170000  0.64160000  0.90400000  1.0
  H  H26  1  0.40500000  0.66840000  0.83700000  1.0
  H  H27  1  0.41640000  0.66000000  0.87780000  1.0
  H  H28  1  0.06190000  0.81260000  0.77240000  1.0
  H  H29  1  0.07070000  0.79140000  0.71260000  1.0
  H  H30  1  0.45910000  0.77380000  0.69940000  1.0
  H  H31  1  0.44750000  0.79140000  0.75940000  1.0
  H  H32  1  0.97860000  0.00460000  0.87740000  1.0
  H  H33  1  0.99040000  0.09340000  0.89100000  1.0
  H  H34  1  0.37890000  0.04040000  0.88640000  1.0
  H  H35  1  0.35750000  0.94960000  0.87480000  1.0
  H  H36  1  0.18270000  0.83740000  0.98920000  1.0
  H  H37  1  0.05740000  0.83700000  0.04500000  1.0
  H  H38  1  0.76270000  0.80860000  0.99980000  1.0
  H  H39  1  0.88380000  0.80680000  0.94360000  1.0
  H  H40  1  0.00260000  0.63840000  0.80160000  1.0
  H  H41  1  0.88640000  0.64440000  0.75500000  1.0
  H  H42  1  0.21200000  0.65240000  0.68980000  1.0
  H  H43  1  0.32670000  0.63780000  0.73740000  1.0
  H  H44  1  0.28500000  0.42300000  0.85220000  1.0
  H  H45  1  0.40860000  0.33440000  0.85460000  1.0
  H  H46  1  0.73020000  0.39380000  0.85020000  1.0
  H  H47  1  0.60300000  0.48800000  0.84660000  1.0
  H  H48  1  0.44680000  0.57960000  0.96840000  1.0
  H  H49  1  0.40810000  0.61680000  0.02640000  1.0
  H  H50  1  0.05530000  0.69820000  0.01020000  1.0
  H  H51  1  0.09120000  0.66100000  0.95260000  1.0
  H  H52  1  0.80590000  0.56460000  0.57900000  1.0
  H  H53  1  0.85020000  0.54420000  0.67920000  1.0
  H  H54  1  0.84690000  0.45320000  0.65800000  1.0
  H  H55  1  0.83660000  0.38920000  0.61880000  1.0
  H  H56  1  0.79520000  0.32040000  0.58100000  1.0
  H  H57  1  0.68220000  0.44040000  0.51200000  1.0
  H  H58  1  0.72090000  0.50720000  0.55200000  1.0
  H  H59  1  0.73230000  0.36620000  0.47060000  1.0
  H  H60  1  0.70640000  0.26500000  0.55180000  1.0
  H  H61  1  0.70130000  0.21460000  0.49680000  1.0
  H  H62  1  0.75710000  0.15120000  0.17040000  1.0
  H  H63  1  0.72140000  0.21820000  0.17020000  1.0
  H  H64  1  0.04490000  0.13060000  0.14780000  1.0
  H  H65  1  0.04990000  0.13260000  0.10600000  1.0
  H  H66  1  0.72780000  0.22100000  0.10320000  1.0
  H  H67  1  0.74770000  0.15460000  0.10600000  1.0
  H  H68  1  0.98830000  0.23560000  0.10540000  1.0
  H  H69  1  0.99130000  0.23540000  0.14660000  1.0
  H  H70  1  0.62200000  0.34280000  0.15940000  1.0
  H  H71  1  0.57830000  0.40880000  0.16500000  1.0
  H  H72  1  0.88890000  0.44180000  0.13040000  1.0
  H  H73  1  0.84790000  0.43140000  0.17120000  1.0
  H  H74  1  0.64510000  0.42340000  0.10360000  1.0
  H  H75  1  0.69730000  0.35840000  0.09600000  1.0
  H  H76  1  0.91040000  0.33160000  0.16300000  1.0
  H  H77  1  0.95420000  0.34000000  0.12220000  1.0
  H  H78  1  0.64690000  0.18740000  0.22760000  1.0
  H  H79  1  0.57470000  0.20860000  0.28740000  1.0
  H  H80  1  0.93230000  0.22620000  0.30060000  1.0
  H  H81  1  0.99830000  0.20860000  0.24060000  1.0
  H  H82  1  0.86060000  0.99540000  0.12260000  1.0
  H  H83  1  0.97480000  0.90660000  0.10900000  1.0
  H  H84  1  0.30570000  0.95960000  0.11360000  1.0
  H  H85  1  0.18190000  0.05040000  0.12520000  1.0
  H  H86  1  0.00930000  0.16260000  0.01080000  1.0
  H  H87  1  0.93940000  0.16300000  0.95500000  1.0
  H  H88  1  0.57110000  0.19140000  0.00020000  1.0
  H  H89  1  0.63420000  0.19320000  0.05640000  1.0
  H  H90  1  0.44260000  0.36160000  0.19840000  1.0
  H  H91  1  0.28580000  0.35560000  0.24500000  1.0
  H  H92  1  0.55420000  0.34760000  0.31020000  1.0
  H  H93  1  0.70190000  0.36220000  0.26260000  1.0
  H  H94  1  0.56020000  0.57700000  0.14780000  1.0
  H  H95  1  0.59760000  0.66560000  0.14540000  1.0
  H  H96  1  0.97420000  0.60620000  0.14980000  1.0
  H  H97  1  0.93760000  0.51200000  0.15340000  1.0
  H  H98  1  0.99480000  0.42040000  0.03160000  1.0
  H  H99  1  0.05130000  0.38320000  0.97360000  1.0
  H  H100  1  0.76370000  0.30180000  0.98980000  1.0
  H  H101  1  0.70480000  0.33900000  0.04740000  1.0
  H  H102  1  0.94950000  0.43540000  0.42100000  1.0
  H  H103  1  0.07360000  0.45580000  0.32080000  1.0
  H  H104  1  0.95810000  0.54680000  0.34200000  1.0
  H  H105  1  0.84460000  0.61080000  0.38120000  1.0
  H  H106  1  0.69660000  0.67960000  0.41900000  1.0
  H  H107  1  0.63460000  0.55960000  0.48800000  1.0
  H  H108  1  0.78010000  0.49280000  0.44800000  1.0
  H  H109  1  0.56910000  0.63380000  0.52940000  1.0
  H  H110  1  0.52320000  0.73500000  0.44820000  1.0
  H  H111  1  0.41270000  0.78540000  0.50320000  1.0
  H  H112  1  0.15830000  0.34880000  0.67040000  1.0
  H  H113  1  0.18960000  0.28180000  0.67020000  1.0
  H  H114  1  0.42550000  0.36940000  0.64780000  1.0
  H  H115  1  0.43250000  0.36740000  0.60600000  1.0
  H  H116  1  0.19880000  0.27900000  0.60320000  1.0
  H  H117  1  0.15230000  0.34540000  0.60600000  1.0
  H  H118  1  0.47390000  0.26440000  0.60540000  1.0
  H  H119  1  0.47670000  0.26460000  0.64660000  1.0
  H  H120  1  0.21480000  0.15720000  0.65940000  1.0
  H  H121  1  0.23710000  0.09120000  0.66500000  1.0
  H  H122  1  0.58070000  0.05820000  0.63040000  1.0
  H  H123  1  0.52930000  0.06860000  0.67120000  1.0
  H  H124  1  0.31850000  0.07660000  0.60360000  1.0
  H  H125  1  0.30570000  0.14160000  0.59600000  1.0
  H  H126  1  0.49200000  0.16840000  0.66300000  1.0
  H  H127  1  0.54420000  0.16000000  0.62220000  1.0
  H  H128  1  0.08430000  0.31260000  0.72760000  1.0
  H  H129  1  0.03330000  0.29140000  0.78740000  1.0
  H  H130  1  0.40850000  0.27380000  0.80060000  1.0
  H  H131  1  0.45690000  0.29140000  0.74060000  1.0
  H  H132  1  0.10600000  0.50460000  0.62260000  1.0
  H  H133  1  0.13140000  0.59340000  0.60900000  1.0
  H  H134  1  0.51530000  0.54040000  0.61360000  1.0
  H  H135  1  0.48230000  0.44960000  0.62520000  1.0
  H  H136  1  0.42190000  0.33740000  0.51080000  1.0
  H  H137  1  0.35240000  0.33700000  0.45500000  1.0
  H  H138  1  0.01250000  0.30860000  0.50020000  1.0
  H  H139  1  0.07740000  0.30680000  0.55640000  1.0
  H  H140  1  0.05420000  0.13840000  0.69840000  1.0
  H  H141  1  0.89140000  0.14440000  0.74500000  1.0
  H  H142  1  0.15180000  0.15240000  0.81020000  1.0
  H  H143  1  0.31410000  0.13780000  0.76260000  1.0
  H  H144  1  0.38720000  0.92300000  0.64780000  1.0
  H  H145  1  0.51320000  0.83440000  0.64540000  1.0
  H  H146  1  0.83040000  0.89380000  0.64980000  1.0
  H  H147  1  0.69960000  0.98800000  0.65340000  1.0
  H  H148  1  0.66520000  0.07960000  0.53160000  1.0
  H  H149  1  0.68450000  0.11680000  0.47360000  1.0
  H  H150  1  0.31550000  0.19820000  0.48980000  1.0
  H  H151  1  0.29380000  0.16100000  0.54740000  1.0
  H  H152  1  0.63490000  0.06460000  0.92100000  1.0
  H  H153  1  0.77940000  0.04420000  0.82080000  1.0
  H  H154  1  0.75490000  0.95320000  0.84200000  1.0
  H  H155  1  0.70540000  0.88920000  0.88120000  1.0
  H  H156  1  0.62620000  0.82040000  0.91900000  1.0
  H  H157  1  0.44420000  0.94040000  0.98800000  1.0
  H  H158  1  0.52290000  0.00720000  0.94800000  1.0
  H  H159  1  0.45290000  0.86620000  0.02940000  1.0
  H  H160  1  0.50820000  0.76500000  0.94820000  1.0
  H  H161  1  0.44810000  0.71460000  0.00320000  1.0
  H  H162  1  0.17750000  0.65120000  0.32960000  1.0
  H  H163  1  0.14160000  0.71820000  0.32980000  1.0
  H  H164  1  0.44270000  0.63060000  0.35220000  1.0
  H  H165  1  0.40590000  0.63260000  0.39400000  1.0
  H  H166  1  0.08100000  0.72100000  0.39680000  1.0
  H  H167  1  0.10370000  0.65460000  0.39400000  1.0
  H  H168  1  0.34370000  0.73560000  0.39460000  1.0
  H  H169  1  0.38790000  0.73540000  0.35340000  1.0
  H  H170  1  0.03140000  0.84280000  0.34060000  1.0
  H  H171  1  0.99330000  0.90880000  0.33500000  1.0
  H  H172  1  0.26930000  0.94180000  0.36960000  1.0
  H  H173  1  0.26910000  0.93140000  0.32880000  1.0
  H  H174  1  0.99870000  0.92340000  0.39640000  1.0
  H  H175  1  0.04330000  0.85840000  0.40400000  1.0
  H  H176  1  0.32340000  0.83160000  0.33700000  1.0
  H  H177  1  0.32640000  0.84000000  0.37780000  1.0
  H  H178  1  0.12450000  0.68740000  0.27240000  1.0
  H  H179  1  0.11210000  0.70860000  0.21260000  1.0
  H  H180  1  0.48290000  0.72620000  0.19940000  1.0
  H  H181  1  0.48890000  0.70860000  0.25940000  1.0
  H  H182  1  0.23320000  0.49540000  0.37740000  1.0
  H  H183  1  0.33380000  0.40660000  0.39100000  1.0
  H  H184  1  0.66930000  0.45960000  0.38640000  1.0
  H  H185  1  0.55710000  0.55040000  0.37480000  1.0
  H  H186  1  0.27010000  0.66260000  0.48920000  1.0
  H  H187  1  0.14440000  0.66300000  0.54500000  1.0
  H  H188  1  0.82130000  0.69140000  0.49980000  1.0
  H  H189  1  0.94060000  0.69320000  0.44360000  1.0
  H  H190  1  0.89100000  0.86160000  0.30160000  1.0
  H  H191  1  0.78080000  0.85560000  0.25500000  1.0
  H  H192  1  0.11440000  0.84760000  0.18980000  1.0
  H  H193  1  0.21450000  0.86220000  0.23740000  1.0
  H  H194  1  0.95800000  0.07700000  0.35220000  1.0
  H  H195  1  0.99300000  0.16560000  0.35460000  1.0
  H  H196  1  0.37400000  0.10620000  0.35020000  1.0
  H  H197  1  0.34100000  0.01200000  0.34660000  1.0
  H  H198  1  0.27640000  0.92040000  0.46840000  1.0
  H  H199  1  0.27490000  0.88320000  0.52640000  1.0
  H  H200  1  0.00350000  0.80180000  0.51020000  1.0
  H  H201  1  0.00220000  0.83900000  0.45260000  1.0
  H  H202  1  0.62050000  0.93540000  0.07900000  1.0
  H  H203  1  0.64440000  0.95580000  0.17920000  1.0
  H  H204  1  0.55010000  0.04680000  0.15800000  1.0
  H  H205  1  0.47580000  0.11080000  0.11880000  1.0
  H  H206  1  0.36560000  0.17960000  0.08100000  1.0
  H  H207  1  0.37260000  0.05960000  0.01200000  1.0
  H  H208  1  0.47810000  0.99280000  0.05200000  1.0
  H  H209  1  0.34850000  0.13380000  0.97060000  1.0
  H  H210  1  0.22140000  0.23500000  0.05180000  1.0
  H  H211  1  0.16590000  0.28540000  0.99680000  1.0
  C  C212  1  0.19864000  0.81482000  0.86830000  1.0
  C  C213  1  0.14592000  0.81502000  0.83214000  1.0
  C  C214  1  0.25340000  0.86782000  0.87158000  1.0
  C  C215  1  0.08119000  0.81430000  0.89732000  1.0
  C  C216  1  0.29902000  0.76432000  0.87164000  1.0
  C  C217  1  0.28897000  0.61538000  0.86108000  1.0
  C  C218  1  0.19294000  0.62368000  0.83424000  1.0
  C  C219  1  0.40145000  0.56332000  0.85178000  1.0
  C  C220  1  0.21711000  0.60748000  0.89710000  1.0
  C  C221  1  0.35606000  0.66502000  0.86026000  1.0
  C  C222  1  0.25261000  0.80404000  0.77174000  1.0
  C  C223  1  0.14254000  0.80440000  0.75792000  1.0
  C  C224  1  0.14733000  0.79266000  0.72188000  1.0
  C  C225  1  0.26358000  0.78328000  0.70056000  1.0
  C  C226  1  0.37844000  0.78176000  0.71396000  1.0
  C  C227  1  0.37045000  0.79232000  0.74978000  1.0
  C  C228  1  0.26695000  0.76754000  0.66136000  1.0
  C  C229  1  0.16743000  0.96814000  0.87640000  1.0
  C  C230  1  0.05984000  0.01202000  0.88010000  1.0
  C  C231  1  0.06624000  0.06490000  0.88742000  1.0
  C  C232  1  0.18584000  0.07638000  0.88954000  1.0
  C  C233  1  0.29642000  0.03318000  0.88498000  1.0
  C  C234  1  0.28311000  0.97896000  0.87822000  1.0
  C  C235  1  0.19910000  0.13576000  0.89804000  1.0
  C  C236  1  0.04613000  0.82184000  0.96130000  1.0
  C  C237  1  0.09775000  0.83126000  0.99104000  1.0
  C  C238  1  0.02194000  0.83166000  0.02446000  1.0
  C  C239  1  0.89940000  0.82434000  0.02706000  1.0
  C  C240  1  0.84794000  0.81456000  0.99736000  1.0
  C  C241  1  0.91961000  0.81326000  0.96372000  1.0
  C  C242  1  0.82086000  0.82296000  0.06272000  1.0
  C  C243  1  0.17479000  0.63660000  0.77422000  1.0
  C  C244  1  0.04595000  0.63992000  0.77858000  1.0
  C  C245  1  0.97508000  0.64534000  0.75110000  1.0
  C  C246  1  0.03547000  0.65240000  0.71706000  1.0
  C  C247  1  0.16779000  0.64902000  0.71260000  1.0
  C  C248  1  0.23620000  0.64070000  0.74110000  1.0
  C  C249  1  0.95820000  0.66122000  0.68738000  1.0
  C  C250  1  0.43417000  0.46366000  0.85100000  1.0
  C  C251  1  0.37511000  0.41762000  0.85236000  1.0
  C  C252  1  0.44904000  0.36514000  0.85378000  1.0
  C  C253  1  0.58031000  0.35530000  0.85408000  1.0
  C  C254  1  0.63939000  0.39994000  0.85108000  1.0
  C  C255  1  0.56306000  0.45696000  0.84912000  1.0
  C  C256  1  0.66436000  0.29762000  0.85886000  1.0
  C  C257  1  0.26738000  0.61818000  0.95566000  1.0
  C  C258  1  0.36755000  0.60382000  0.97668000  1.0
  C  C259  1  0.34450000  0.62732000  0.01128000  1.0
  C  C260  1  0.23155000  0.66490000  0.02280000  1.0
  C  C261  1  0.13636000  0.67526000  0.00182000  1.0
  C  C262  1  0.15710000  0.65198000  0.96722000  1.0
  C  C263  1  0.21891000  0.69452000  0.05886000  1.0
  C  C264  1  0.81337000  0.54930000  0.60156000  1.0
  C  C265  1  0.84048000  0.53664000  0.65600000  1.0
  C  C266  1  0.83524000  0.48690000  0.64522000  1.0
  C  C267  1  0.78408000  0.45388000  0.58696000  1.0
  C  C268  1  0.80582000  0.39982000  0.59714000  1.0
  C  C269  1  0.78064000  0.35840000  0.57432000  1.0
  C  C270  1  0.73557000  0.37452000  0.54294000  1.0
  C  C271  1  0.71310000  0.42860000  0.53340000  1.0
  C  C272  1  0.73856000  0.46880000  0.55788000  1.0
  C  C273  1  0.71888000  0.33522000  0.48462000  1.0
  C  C274  1  0.70847000  0.28000000  0.52886000  1.0
  C  C275  1  0.70265000  0.25274000  0.49856000  1.0
  C  C276  1  0.88176000  0.18518000  0.13170000  1.0
  C  C277  1  0.79308000  0.18498000  0.16786000  1.0
  C  C278  1  0.99280000  0.13218000  0.12842000  1.0
  C  C279  1  0.79281000  0.18570000  0.10268000  1.0
  C  C280  1  0.93498000  0.23568000  0.12836000  1.0
  C  C281  1  0.76543000  0.38462000  0.13892000  1.0
  C  C282  1  0.65086000  0.37632000  0.16576000  1.0
  C  C283  1  0.81655000  0.43668000  0.14822000  1.0
  C  C284  1  0.72169000  0.39252000  0.10290000  1.0
  C  C285  1  0.88134000  0.33498000  0.13974000  1.0
  C  C286  1  0.82839000  0.19596000  0.22826000  1.0
  C  C287  1  0.70486000  0.19560000  0.24208000  1.0
  C  C288  1  0.66187000  0.20734000  0.27812000  1.0
  C  C289  1  0.74742000  0.21672000  0.29944000  1.0
  C  C290  1  0.87416000  0.21824000  0.28604000  1.0
  C  C291  1  0.91255000  0.20768000  0.25022000  1.0
  C  C292  1  0.69585000  0.23246000  0.33864000  1.0
  C  C293  1  0.01197000  0.03186000  0.12360000  1.0
  C  C294  1  0.95196000  0.98798000  0.11990000  1.0
  C  C295  1  0.01856000  0.93510000  0.11258000  1.0
  C  C296  1  0.15176000  0.92362000  0.11046000  1.0
  C  C297  1  0.21458000  0.96682000  0.11502000  1.0
  C  C298  1  0.14029000  0.02104000  0.12178000  1.0
  C  C299  1  0.23290000  0.86424000  0.10196000  1.0
  C  C300  1  0.82927000  0.17816000  0.03870000  1.0
  C  C301  1  0.92005000  0.16874000  0.00896000  1.0
  C  C302  1  0.87806000  0.16834000  0.97554000  1.0
  C  C303  1  0.75080000  0.17566000  0.97294000  1.0
  C  C304  1  0.65986000  0.18544000  0.00264000  1.0
  C  C305  1  0.69659000  0.18674000  0.03628000  1.0
  C  C306  1  0.70654000  0.17704000  0.93728000  1.0
  C  C307  1  0.58561000  0.36340000  0.22578000  1.0
  C  C308  1  0.46445000  0.36008000  0.22142000  1.0
  C  C309  1  0.37152000  0.35466000  0.24890000  1.0
  C  C310  1  0.40493000  0.34760000  0.28294000  1.0
  C  C311  1  0.52941000  0.35098000  0.28740000  1.0
  C  C312  1  0.61800000  0.35930000  0.25890000  1.0
  C  C313  1  0.30680000  0.33878000  0.31262000  1.0
  C  C314  1  0.74883000  0.53634000  0.14900000  1.0
  C  C315  1  0.64509000  0.58238000  0.14764000  1.0
  C  C316  1  0.66796000  0.63486000  0.14622000  1.0
  C  C317  1  0.78969000  0.64470000  0.14592000  1.0
  C  C318  1  0.89041000  0.60006000  0.14892000  1.0
  C  C319  1  0.86914000  0.54304000  0.15088000  1.0
  C  C320  1  0.82084000  0.70238000  0.14114000  1.0
  C  C321  1  0.84122000  0.38182000  0.04434000  1.0
  C  C322  1  0.94805000  0.39618000  0.02332000  1.0
  C  C323  1  0.98310000  0.37268000  0.98872000  1.0
  C  C324  1  0.91925000  0.33510000  0.97720000  1.0
  C  C325  1  0.81344000  0.32474000  0.99818000  1.0
  C  C326  1  0.77630000  0.34802000  0.03278000  1.0
  C  C327  1  0.97229000  0.30548000  0.94114000  1.0
  C  C328  1  0.96423000  0.45070000  0.39844000  1.0
  C  C329  1  0.03312000  0.46336000  0.34400000  1.0
  C  C330  1  0.96736000  0.51310000  0.35478000  1.0
  C  C331  1  0.82492000  0.54612000  0.41304000  1.0
  C  C332  1  0.80278000  0.60018000  0.40286000  1.0
  C  C333  1  0.71336000  0.64160000  0.42568000  1.0
  C  C334  1  0.65303000  0.62548000  0.45706000  1.0
  C  C335  1  0.67510000  0.57140000  0.46660000  1.0
  C  C336  1  0.76524000  0.53120000  0.44212000  1.0
  C  C337  1  0.53872000  0.66478000  0.51538000  1.0
  C  C338  1  0.51733000  0.72000000  0.47114000  1.0
  C  C339  1  0.45395000  0.74726000  0.50144000  1.0
  C  C340  1  0.31694000  0.31482000  0.63170000  1.0
  C  C341  1  0.22806000  0.31502000  0.66786000  1.0
  C  C342  1  0.37498000  0.36782000  0.62842000  1.0
  C  C343  1  0.22851000  0.31430000  0.60268000  1.0
  C  C344  1  0.42066000  0.26432000  0.62836000  1.0
  C  C345  1  0.40005000  0.11538000  0.63892000  1.0
  C  C346  1  0.27718000  0.12368000  0.66576000  1.0
  C  C347  1  0.50323000  0.06332000  0.64822000  1.0
  C  C348  1  0.36421000  0.10748000  0.60290000  1.0
  C  C349  1  0.46632000  0.16502000  0.63974000  1.0
  C  C350  1  0.27435000  0.30404000  0.72826000  1.0
  C  C351  1  0.15046000  0.30440000  0.74208000  1.0
  C  C352  1  0.11921000  0.29266000  0.77812000  1.0
  C  C353  1  0.21414000  0.28328000  0.79944000  1.0
  C  C354  1  0.34240000  0.28176000  0.78604000  1.0
  C  C355  1  0.37023000  0.29232000  0.75022000  1.0
  C  C356  1  0.17831000  0.26754000  0.83864000  1.0
  C  C357  1  0.29383000  0.46814000  0.62360000  1.0
  C  C358  1  0.18994000  0.51202000  0.61990000  1.0
  C  C359  1  0.20366000  0.56490000  0.61258000  1.0
  C  C360  1  0.32538000  0.57638000  0.61046000  1.0
  C  C361  1  0.43140000  0.53318000  0.61502000  1.0
  C  C362  1  0.41133000  0.47896000  0.62178000  1.0
  C  C363  1  0.34714000  0.63576000  0.60196000  1.0
  C  C364  1  0.25743000  0.32184000  0.53870000  1.0
  C  C365  1  0.33879000  0.33126000  0.50896000  1.0
  C  C366  1  0.29640000  0.33166000  0.47554000  1.0
  C  C367  1  0.17646000  0.32434000  0.47294000  1.0
  C  C368  1  0.09530000  0.31456000  0.50264000  1.0
  C  C369  1  0.13333000  0.31326000  0.53628000  1.0
  C  C370  1  0.13358000  0.32296000  0.43728000  1.0
  C  C371  1  0.19901000  0.13660000  0.72578000  1.0
  C  C372  1  0.07453000  0.13992000  0.72142000  1.0
  C  C373  1  0.97618000  0.14534000  0.74890000  1.0
  C  C374  1  0.00253000  0.15240000  0.78294000  1.0
  C  C375  1  0.13039000  0.14902000  0.78740000  1.0
  C  C376  1  0.22730000  0.14070000  0.75890000  1.0
  C  C377  1  0.89558000  0.16122000  0.81262000  1.0
  C  C378  1  0.53517000  0.96366000  0.64900000  1.0
  C  C379  1  0.47747000  0.91762000  0.64764000  1.0
  C  C380  1  0.55282000  0.86514000  0.64622000  1.0
  C  C381  1  0.68439000  0.85530000  0.64592000  1.0
  C  C382  1  0.74047000  0.89994000  0.64892000  1.0
  C  C383  1  0.66218000  0.95696000  0.65088000  1.0
  C  C384  1  0.77322000  0.79762000  0.64114000  1.0
  C  C385  1  0.47304000  0.11818000  0.54434000  1.0
  C  C386  1  0.59423000  0.10382000  0.52332000  1.0
  C  C387  1  0.60578000  0.12732000  0.48872000  1.0
  C  C388  1  0.50435000  0.16490000  0.47720000  1.0
  C  C389  1  0.38818000  0.17526000  0.49818000  1.0
  C  C390  1  0.37432000  0.15198000  0.53278000  1.0
  C  C391  1  0.52777000  0.19452000  0.44114000  1.0
  C  C392  1  0.66493000  0.04930000  0.89844000  1.0
  C  C393  1  0.74648000  0.03664000  0.84400000  1.0
  C  C394  1  0.73046000  0.98690000  0.85478000  1.0
  C  C395  1  0.62104000  0.95388000  0.91304000  1.0
  C  C396  1  0.65296000  0.89982000  0.90286000  1.0
  C  C397  1  0.60496000  0.85840000  0.92568000  1.0
  C  C398  1  0.52851000  0.87452000  0.95706000  1.0
  C  C399  1  0.49650000  0.92860000  0.96660000  1.0
  C  C400  1  0.54644000  0.96880000  0.94212000  1.0
  C  C401  1  0.45350000  0.83522000  0.01538000  1.0
  C  C402  1  0.48733000  0.78000000  0.97114000  1.0
  C  C403  1  0.45121000  0.75274000  0.00144000  1.0
  C  C404  1  0.26346000  0.68518000  0.36830000  1.0
  C  C405  1  0.21094000  0.68498000  0.33214000  1.0
  C  C406  1  0.37122000  0.63218000  0.37158000  1.0
  C  C407  1  0.14549000  0.68570000  0.39732000  1.0
  C  C408  1  0.31334000  0.73568000  0.37164000  1.0
  C  C409  1  0.15435000  0.88462000  0.36108000  1.0
  C  C410  1  0.06662000  0.87632000  0.33424000  1.0
  C  C411  1  0.21477000  0.93668000  0.35178000  1.0
  C  C412  1  0.07459000  0.89252000  0.39710000  1.0
  C  C413  1  0.27108000  0.83498000  0.36026000  1.0
  C  C414  1  0.30665000  0.69596000  0.27174000  1.0
  C  C415  1  0.19694000  0.69560000  0.25792000  1.0
  C  C416  1  0.18999000  0.70734000  0.22188000  1.0
  C  C417  1  0.29686000  0.71672000  0.20056000  1.0
  C  C418  1  0.41020000  0.71824000  0.21396000  1.0
  C  C419  1  0.41277000  0.70768000  0.24978000  1.0
  C  C420  1  0.28449000  0.73246000  0.16136000  1.0
  C  C421  1  0.38557000  0.53186000  0.37640000  1.0
  C  C422  1  0.32186000  0.48798000  0.38010000  1.0
  C  C423  1  0.38114000  0.43510000  0.38742000  1.0
  C  C424  1  0.51222000  0.42362000  0.38954000  1.0
  C  C425  1  0.57960000  0.46682000  0.38498000  1.0
  C  C426  1  0.51207000  0.52104000  0.37822000  1.0
  C  C427  1  0.58486000  0.36424000  0.39804000  1.0
  C  C428  1  0.11797000  0.67816000  0.46130000  1.0
  C  C429  1  0.17901000  0.66874000  0.49104000  1.0
  C  C430  1  0.10360000  0.66834000  0.52446000  1.0
  C  C431  1  0.97374000  0.67566000  0.52706000  1.0
  C  C432  1  0.91250000  0.68544000  0.49736000  1.0
  C  C433  1  0.98287000  0.68674000  0.46372000  1.0
  C  C434  1  0.89382000  0.67704000  0.56272000  1.0
  C  C435  1  0.06139000  0.86340000  0.27422000  1.0
  C  C436  1  0.93587000  0.86008000  0.27858000  1.0
  C  C437  1  0.87042000  0.85466000  0.25110000  1.0
  C  C438  1  0.93787000  0.84760000  0.21706000  1.0
  C  C439  1  0.06681000  0.85098000  0.21260000  1.0
  C  C440  1  0.12690000  0.85930000  0.24110000  1.0
  C  C441  1  0.86942000  0.83878000  0.18738000  1.0
  C  C442  1  0.14783000  0.03634000  0.35100000  1.0
  C  C443  1  0.04273000  0.08238000  0.35236000  1.0
  C  C444  1  0.06418000  0.13486000  0.35378000  1.0
  C  C445  1  0.18561000  0.14470000  0.35408000  1.0
  C  C446  1  0.28933000  0.10006000  0.35108000  1.0
  C  C447  1  0.27002000  0.04304000  0.34912000  1.0
  C  C448  1  0.21198000  0.20238000  0.35886000  1.0
  C  C449  1  0.13556000  0.88182000  0.45566000  1.0
  C  C450  1  0.22137000  0.89618000  0.47668000  1.0
  C  C451  1  0.22182000  0.87268000  0.51128000  1.0
  C  C452  1  0.14645000  0.83510000  0.52280000  1.0
  C  C453  1  0.06162000  0.82474000  0.50182000  1.0
  C  C454  1  0.05908000  0.84802000  0.46722000  1.0
  C  C455  1  0.16343000  0.80548000  0.55886000  1.0
  C  C456  1  0.61267000  0.95070000  0.10156000  1.0
  C  C457  1  0.62712000  0.96336000  0.15600000  1.0
  C  C458  1  0.57214000  0.01310000  0.14522000  1.0
  C  C459  1  0.48796000  0.04612000  0.08696000  1.0
  C  C460  1  0.45564000  0.10018000  0.09714000  1.0
  C  C461  1  0.38904000  0.14160000  0.07432000  1.0
  C  C462  1  0.36009000  0.12548000  0.04294000  1.0
  C  C463  1  0.39170000  0.07140000  0.03340000  1.0
  C  C464  1  0.45736000  0.03120000  0.05788000  1.0
  C  C465  1  0.30410000  0.16478000  0.98462000  1.0
  C  C466  1  0.23847000  0.22000000  0.02886000  1.0
  C  C467  1  0.20539000  0.24726000  0.99856000  1.0
  N  N468  1  0.83002000  0.57814000  0.62902000  1.0
  N  N469  1  0.80828000  0.49512000  0.61012000  1.0
  N  N470  1  0.69946000  0.28908000  0.47180000  1.0
  N  N471  1  0.71779000  0.33422000  0.51900000  1.0
  N  N472  1  0.03718000  0.42186000  0.37098000  1.0
  N  N473  1  0.91352000  0.50488000  0.38988000  1.0
  N  N474  1  0.46034000  0.71092000  0.52820000  1.0
  N  N475  1  0.57101000  0.66578000  0.48100000  1.0
  N  N476  1  0.70904000  0.07814000  0.87098000  1.0
  N  N477  1  0.66840000  0.99512000  0.88988000  1.0
  N  N478  1  0.42126000  0.78908000  0.02820000  1.0
  N  N479  1  0.48679000  0.83422000  0.98100000  1.0
  N  N480  1  0.65816000  0.92186000  0.12902000  1.0
  N  N481  1  0.55340000  0.00488000  0.11012000  1.0
  N  N482  1  0.23854000  0.21092000  0.97180000  1.0
  N  N483  1  0.30201000  0.16578000  0.01900000  1.0
  O  O484  1  0.25211000  0.71546000  0.86832000  1.0
  O  O485  1  0.25998000  0.81416000  0.80648000  1.0
  O  O486  1  0.14506000  0.91660000  0.87008000  1.0
  O  O487  1  0.12969000  0.82028000  0.93014000  1.0
  O  O488  1  0.25318000  0.62976000  0.80068000  1.0
  O  O489  1  0.34623000  0.51524000  0.85090000  1.0
  O  O490  1  0.30467000  0.59546000  0.92220000  1.0
  O  O491  1  0.16140000  0.76846000  0.65154000  1.0
  O  O492  1  0.37818000  0.75622000  0.64222000  1.0
  O  O493  1  0.09885000  0.17548000  0.90242000  1.0
  O  O494  1  0.30743000  0.14322000  0.90092000  1.0
  O  O495  1  0.70111000  0.82928000  0.06650000  1.0
  O  O496  1  0.87838000  0.81906000  0.09098000  1.0
  O  O497  1  0.84281000  0.65920000  0.69078000  1.0
  O  O498  1  0.01499000  0.67050000  0.65672000  1.0
  O  O499  1  0.60311000  0.25672000  0.86086000  1.0
  O  O500  1  0.77951000  0.29270000  0.85988000  1.0
  O  O501  1  0.10427000  0.71654000  0.07112000  1.0
  O  O502  1  0.32097000  0.69440000  0.07006000  1.0
  O  O503  1  0.83589000  0.28454000  0.13168000  1.0
  O  O504  1  0.88062000  0.18584000  0.19352000  1.0
  O  O505  1  0.93174000  0.08340000  0.12992000  1.0
  O  O506  1  0.88011000  0.17972000  0.06986000  1.0
  O  O507  1  0.68362000  0.37024000  0.19932000  1.0
  O  O508  1  0.71237000  0.48476000  0.14910000  1.0
  O  O509  1  0.82233000  0.40454000  0.07780000  1.0
  O  O510  1  0.58140000  0.23154000  0.34846000  1.0
  O  O511  1  0.77662000  0.24378000  0.35778000  1.0
  O  O512  1  0.17675000  0.82452000  0.09758000  1.0
  O  O513  1  0.35157000  0.85678000  0.09908000  1.0
  O  O514  1  0.59689000  0.17072000  0.93350000  1.0
  O  O515  1  0.78842000  0.18094000  0.90902000  1.0
  O  O516  1  0.19279000  0.34080000  0.30922000  1.0
  O  O517  1  0.34221000  0.32950000  0.34328000  1.0
  O  O518  1  0.72069000  0.74328000  0.13914000  1.0
  O  O519  1  0.93209000  0.70730000  0.14012000  1.0
  O  O520  1  0.89193000  0.28346000  0.92888000  1.0
  O  O521  1  0.08543000  0.30560000  0.92994000  1.0
  O  O522  1  0.37043000  0.21546000  0.63168000  1.0
  O  O523  1  0.31646000  0.31416000  0.69352000  1.0
  O  O524  1  0.26514000  0.41660000  0.62992000  1.0
  O  O525  1  0.30983000  0.32028000  0.56986000  1.0
  O  O526  1  0.30386000  0.12976000  0.69932000  1.0
  O  O527  1  0.44713000  0.01524000  0.64910000  1.0
  O  O528  1  0.47687000  0.09546000  0.57780000  1.0
  O  O529  1  0.06294000  0.26846000  0.84846000  1.0
  O  O530  1  0.27040000  0.25622000  0.85778000  1.0
  O  O531  1  0.25127000  0.67548000  0.59758000  1.0
  O  O532  1  0.45835000  0.64322000  0.59908000  1.0
  O  O533  1  0.01761000  0.32928000  0.43350000  1.0
  O  O534  1  0.21936000  0.31906000  0.40902000  1.0
  O  O535  1  0.78359000  0.15920000  0.80922000  1.0
  O  O536  1  0.92171000  0.17050000  0.84328000  1.0
  O  O537  1  0.71397000  0.75672000  0.63914000  1.0
  O  O538  1  0.88939000  0.79270000  0.64012000  1.0
  O  O539  1  0.42539000  0.21654000  0.42888000  1.0
  O  O540  1  0.64103000  0.19440000  0.42994000  1.0
  O  O541  1  0.21757000  0.78454000  0.36832000  1.0
  O  O542  1  0.32414000  0.68584000  0.30648000  1.0
  O  O543  1  0.31166000  0.58340000  0.37008000  1.0
  O  O544  1  0.19997000  0.67972000  0.43014000  1.0
  O  O545  1  0.13294000  0.87024000  0.30068000  1.0
  O  O546  1  0.11147000  0.98476000  0.35090000  1.0
  O  O547  1  0.15013000  0.90454000  0.42220000  1.0
  O  O548  1  0.17986000  0.73154000  0.15154000  1.0
  O  O549  1  0.38440000  0.74378000  0.14222000  1.0
  O  O550  1  0.52433000  0.32452000  0.40242000  1.0
  O  O551  1  0.70065000  0.35678000  0.40092000  1.0
  O  O552  1  0.78039000  0.67072000  0.56650000  1.0
  O  O553  1  0.94744000  0.68094000  0.59098000  1.0
  O  O554  1  0.75201000  0.84080000  0.19078000  1.0
  O  O555  1  0.93549000  0.82950000  0.15672000  1.0
  O  O556  1  0.10983000  0.24328000  0.36086000  1.0
  O  O557  1  0.32221000  0.20730000  0.35988000  1.0
  O  O558  1  0.07081000  0.78346000  0.57112000  1.0
  O  O559  1  0.26537000  0.80560000  0.57006000  1.0
