# generated using pymatgen
data_Nd2H17C29O14
_symmetry_space_group_name_H-M   'P 1'
_cell_length_a   14.59520000
_cell_length_b   16.73290000
_cell_length_c   19.57130000
_cell_angle_alpha   90.00000000
_cell_angle_beta   107.34400000
_cell_angle_gamma   90.00000000
_symmetry_Int_Tables_number   1
_chemical_formula_structural   Nd2H17C29O14
_chemical_formula_sum   'Nd8 H68 C116 O56'
_cell_volume   4562.38048694
_cell_formula_units_Z   4
loop_
 _symmetry_equiv_pos_site_id
 _symmetry_equiv_pos_as_xyz
  1  'x, y, z'
loop_
 _atom_site_type_symbol
 _atom_site_label
 _atom_site_symmetry_multiplicity
 _atom_site_fract_x
 _atom_site_fract_y
 _atom_site_fract_z
 _atom_site_occupancy
  Nd  Nd0  1  0.67618000  0.34308000  0.66885000  1.0
  Nd  Nd1  1  0.07771000  0.36419000  0.77086000  1.0
  Nd  Nd2  1  0.82382000  0.84308000  0.83115000  1.0
  Nd  Nd3  1  0.42229000  0.86419000  0.72914000  1.0
  Nd  Nd4  1  0.32382000  0.65692000  0.33115000  1.0
  Nd  Nd5  1  0.92229000  0.63581000  0.22914000  1.0
  Nd  Nd6  1  0.17618000  0.15692000  0.16885000  1.0
  Nd  Nd7  1  0.57771000  0.13581000  0.27086000  1.0
  H  H8  1  0.00750000  0.30460000  0.93710000  1.0
  H  H9  1  0.83770000  0.22140000  0.04870000  1.0
  H  H10  1  0.71790000  0.33050000  0.85830000  1.0
  H  H11  1  0.53630000  0.19480000  0.07600000  1.0
  H  H12  1  0.25550000  0.25460000  0.01450000  1.0
  H  H13  1  0.42140000  0.30770000  0.88810000  1.0
  H  H14  1  0.55610000  0.42260000  0.87770000  1.0
  H  H15  1  0.44240000  0.63600000  0.89360000  1.0
  H  H16  1  0.51410000  0.58380000  0.71550000  1.0
  H  H17  1  0.08670000  0.53910000  0.90950000  1.0
  H  H18  1  0.11030000  0.60620000  0.86140000  1.0
  H  H19  1  0.19340000  0.55530000  0.91190000  1.0
  H  H20  1  0.06880000  0.50970000  0.60730000  1.0
  H  H21  1  0.16680000  0.48280000  0.59720000  1.0
  H  H22  1  0.16520000  0.54640000  0.65560000  1.0
  H  H23  1  0.13530000  0.50390000  0.78320000  1.0
  H  H24  1  0.09400000  0.40070000  0.67350000  1.0
  H  H25  1  0.49250000  0.80460000  0.56290000  1.0
  H  H26  1  0.66230000  0.72140000  0.45130000  1.0
  H  H27  1  0.78210000  0.83050000  0.64170000  1.0
  H  H28  1  0.96370000  0.69480000  0.42400000  1.0
  H  H29  1  0.24450000  0.75460000  0.48550000  1.0
  H  H30  1  0.07860000  0.80770000  0.61190000  1.0
  H  H31  1  0.94390000  0.92260000  0.62230000  1.0
  H  H32  1  0.05760000  0.13600000  0.60640000  1.0
  H  H33  1  0.98590000  0.08380000  0.78450000  1.0
  H  H34  1  0.41330000  0.03910000  0.59050000  1.0
  H  H35  1  0.38970000  0.10620000  0.63860000  1.0
  H  H36  1  0.30660000  0.05530000  0.58810000  1.0
  H  H37  1  0.43120000  0.00970000  0.89270000  1.0
  H  H38  1  0.33320000  0.98280000  0.90280000  1.0
  H  H39  1  0.33480000  0.04640000  0.84440000  1.0
  H  H40  1  0.36470000  0.00390000  0.71680000  1.0
  H  H41  1  0.40600000  0.90070000  0.82650000  1.0
  H  H42  1  0.99250000  0.69540000  0.06290000  1.0
  H  H43  1  0.16230000  0.77860000  0.95130000  1.0
  H  H44  1  0.28210000  0.66950000  0.14170000  1.0
  H  H45  1  0.46370000  0.80520000  0.92400000  1.0
  H  H46  1  0.74450000  0.74540000  0.98550000  1.0
  H  H47  1  0.57860000  0.69230000  0.11190000  1.0
  H  H48  1  0.44390000  0.57740000  0.12230000  1.0
  H  H49  1  0.55760000  0.36400000  0.10640000  1.0
  H  H50  1  0.48590000  0.41620000  0.28450000  1.0
  H  H51  1  0.91330000  0.46090000  0.09050000  1.0
  H  H52  1  0.88970000  0.39380000  0.13860000  1.0
  H  H53  1  0.80660000  0.44470000  0.08810000  1.0
  H  H54  1  0.93120000  0.49030000  0.39270000  1.0
  H  H55  1  0.83320000  0.51720000  0.40280000  1.0
  H  H56  1  0.83480000  0.45360000  0.34440000  1.0
  H  H57  1  0.86470000  0.49610000  0.21680000  1.0
  H  H58  1  0.90600000  0.59930000  0.32650000  1.0
  H  H59  1  0.50750000  0.19540000  0.43710000  1.0
  H  H60  1  0.33770000  0.27860000  0.54870000  1.0
  H  H61  1  0.21790000  0.16950000  0.35830000  1.0
  H  H62  1  0.03630000  0.30520000  0.57600000  1.0
  H  H63  1  0.75550000  0.24540000  0.51450000  1.0
  H  H64  1  0.92140000  0.19230000  0.38810000  1.0
  H  H65  1  0.05610000  0.07740000  0.37770000  1.0
  H  H66  1  0.94240000  0.86400000  0.39360000  1.0
  H  H67  1  0.01410000  0.91620000  0.21550000  1.0
  H  H68  1  0.58670000  0.96090000  0.40950000  1.0
  H  H69  1  0.61030000  0.89380000  0.36140000  1.0
  H  H70  1  0.69340000  0.94470000  0.41190000  1.0
  H  H71  1  0.56880000  0.99030000  0.10730000  1.0
  H  H72  1  0.66680000  0.01720000  0.09720000  1.0
  H  H73  1  0.66520000  0.95360000  0.15560000  1.0
  H  H74  1  0.63530000  0.99610000  0.28320000  1.0
  H  H75  1  0.59400000  0.09930000  0.17350000  1.0
  C  C76  1  0.86560000  0.32530000  0.88710000  1.0
  C  C77  1  0.94660000  0.29780000  0.94220000  1.0
  C  C78  1  0.93760000  0.26030000  0.00480000  1.0
  C  C79  1  0.84570000  0.24830000  0.00930000  1.0
  C  C80  1  0.76470000  0.27560000  0.95610000  1.0
  C  C81  1  0.77230000  0.31360000  0.89390000  1.0
  C  C82  1  0.87280000  0.37150000  0.82360000  1.0
  C  C83  1  0.02040000  0.22470000  0.05990000  1.0
  C  C84  1  0.66870000  0.26190000  0.96340000  1.0
  C  C85  1  0.59140000  0.25210000  0.97040000  1.0
  C  C86  1  0.49630000  0.25060000  0.97780000  1.0
  C  C87  1  0.48420000  0.21750000  0.04180000  1.0
  C  C88  1  0.39380000  0.21900000  0.05320000  1.0
  C  C89  1  0.31440000  0.25340000  0.00530000  1.0
  C  C90  1  0.32540000  0.28710000  0.94080000  1.0
  C  C91  1  0.41500000  0.28500000  0.92980000  1.0
  C  C92  1  0.38340000  0.18660000  0.12090000  1.0
  C  C93  1  0.24360000  0.32280000  0.88580000  1.0
  C  C94  1  0.54360000  0.49210000  0.78960000  1.0
  C  C95  1  0.53630000  0.47290000  0.85870000  1.0
  C  C96  1  0.50060000  0.52670000  0.89850000  1.0
  C  C97  1  0.46840000  0.60020000  0.86810000  1.0
  C  C98  1  0.47390000  0.62290000  0.79920000  1.0
  C  C99  1  0.51060000  0.56960000  0.76060000  1.0
  C  C100  1  0.58230000  0.43730000  0.74330000  1.0
  C  C101  1  0.44670000  0.70270000  0.76660000  1.0
  C  C102  1  0.49990000  0.50800000  0.97090000  1.0
  C  C103  1  0.12810000  0.55410000  0.88170000  1.0
  C  C104  1  0.13520000  0.49900000  0.63150000  1.0
  C  C105  1  0.63440000  0.82530000  0.61290000  1.0
  C  C106  1  0.55340000  0.79780000  0.55780000  1.0
  C  C107  1  0.56240000  0.76030000  0.49520000  1.0
  C  C108  1  0.65430000  0.74830000  0.49070000  1.0
  C  C109  1  0.73530000  0.77560000  0.54390000  1.0
  C  C110  1  0.72770000  0.81360000  0.60610000  1.0
  C  C111  1  0.62720000  0.87150000  0.67640000  1.0
  C  C112  1  0.47960000  0.72470000  0.44010000  1.0
  C  C113  1  0.83130000  0.76190000  0.53660000  1.0
  C  C114  1  0.90860000  0.75210000  0.52960000  1.0
  C  C115  1  0.00370000  0.75060000  0.52220000  1.0
  C  C116  1  0.01580000  0.71750000  0.45820000  1.0
  C  C117  1  0.10620000  0.71900000  0.44680000  1.0
  C  C118  1  0.18560000  0.75340000  0.49470000  1.0
  C  C119  1  0.17460000  0.78710000  0.55920000  1.0
  C  C120  1  0.08500000  0.78500000  0.57020000  1.0
  C  C121  1  0.11660000  0.68660000  0.37910000  1.0
  C  C122  1  0.25640000  0.82280000  0.61420000  1.0
  C  C123  1  0.95640000  0.99210000  0.71040000  1.0
  C  C124  1  0.96370000  0.97290000  0.64130000  1.0
  C  C125  1  0.99940000  0.02670000  0.60150000  1.0
  C  C126  1  0.03160000  0.10020000  0.63190000  1.0
  C  C127  1  0.02610000  0.12290000  0.70080000  1.0
  C  C128  1  0.98940000  0.06960000  0.73940000  1.0
  C  C129  1  0.91770000  0.93730000  0.75670000  1.0
  C  C130  1  0.05330000  0.20270000  0.73340000  1.0
  C  C131  1  0.00010000  0.00800000  0.52910000  1.0
  C  C132  1  0.37190000  0.05410000  0.61830000  1.0
  C  C133  1  0.36480000  0.99900000  0.86850000  1.0
  C  C134  1  0.13440000  0.67470000  0.11290000  1.0
  C  C135  1  0.05340000  0.70220000  0.05780000  1.0
  C  C136  1  0.06240000  0.73970000  0.99520000  1.0
  C  C137  1  0.15430000  0.75170000  0.99070000  1.0
  C  C138  1  0.23530000  0.72440000  0.04390000  1.0
  C  C139  1  0.22770000  0.68640000  0.10610000  1.0
  C  C140  1  0.12720000  0.62850000  0.17640000  1.0
  C  C141  1  0.97960000  0.77530000  0.94010000  1.0
  C  C142  1  0.33130000  0.73810000  0.03660000  1.0
  C  C143  1  0.40860000  0.74790000  0.02960000  1.0
  C  C144  1  0.50370000  0.74940000  0.02220000  1.0
  C  C145  1  0.51580000  0.78250000  0.95820000  1.0
  C  C146  1  0.60620000  0.78100000  0.94680000  1.0
  C  C147  1  0.68560000  0.74660000  0.99470000  1.0
  C  C148  1  0.67460000  0.71290000  0.05920000  1.0
  C  C149  1  0.58500000  0.71500000  0.07020000  1.0
  C  C150  1  0.61660000  0.81340000  0.87910000  1.0
  C  C151  1  0.75640000  0.67720000  0.11420000  1.0
  C  C152  1  0.45640000  0.50790000  0.21040000  1.0
  C  C153  1  0.46370000  0.52710000  0.14130000  1.0
  C  C154  1  0.49940000  0.47330000  0.10150000  1.0
  C  C155  1  0.53160000  0.39980000  0.13190000  1.0
  C  C156  1  0.52610000  0.37710000  0.20080000  1.0
  C  C157  1  0.48940000  0.43040000  0.23940000  1.0
  C  C158  1  0.41770000  0.56270000  0.25670000  1.0
  C  C159  1  0.55330000  0.29730000  0.23340000  1.0
  C  C160  1  0.50010000  0.49200000  0.02910000  1.0
  C  C161  1  0.87190000  0.44590000  0.11830000  1.0
  C  C162  1  0.86480000  0.50100000  0.36850000  1.0
  C  C163  1  0.36560000  0.17470000  0.38710000  1.0
  C  C164  1  0.44660000  0.20220000  0.44220000  1.0
  C  C165  1  0.43760000  0.23970000  0.50480000  1.0
  C  C166  1  0.34570000  0.25170000  0.50930000  1.0
  C  C167  1  0.26470000  0.22440000  0.45610000  1.0
  C  C168  1  0.27230000  0.18640000  0.39390000  1.0
  C  C169  1  0.37280000  0.12850000  0.32360000  1.0
  C  C170  1  0.52040000  0.27530000  0.55990000  1.0
  C  C171  1  0.16870000  0.23810000  0.46340000  1.0
  C  C172  1  0.09140000  0.24790000  0.47040000  1.0
  C  C173  1  0.99630000  0.24940000  0.47780000  1.0
  C  C174  1  0.98420000  0.28250000  0.54180000  1.0
  C  C175  1  0.89380000  0.28100000  0.55320000  1.0
  C  C176  1  0.81440000  0.24660000  0.50530000  1.0
  C  C177  1  0.82540000  0.21290000  0.44080000  1.0
  C  C178  1  0.91500000  0.21500000  0.42980000  1.0
  C  C179  1  0.88340000  0.31340000  0.62090000  1.0
  C  C180  1  0.74360000  0.17720000  0.38580000  1.0
  C  C181  1  0.04360000  0.00790000  0.28960000  1.0
  C  C182  1  0.03630000  0.02710000  0.35870000  1.0
  C  C183  1  0.00060000  0.97330000  0.39850000  1.0
  C  C184  1  0.96840000  0.89980000  0.36810000  1.0
  C  C185  1  0.97390000  0.87710000  0.29920000  1.0
  C  C186  1  0.01060000  0.93040000  0.26060000  1.0
  C  C187  1  0.08230000  0.06270000  0.24330000  1.0
  C  C188  1  0.94670000  0.79730000  0.26660000  1.0
  C  C189  1  0.99990000  0.99200000  0.47090000  1.0
  C  C190  1  0.62810000  0.94590000  0.38170000  1.0
  C  C191  1  0.63520000  0.00100000  0.13150000  1.0
  O  O192  1  0.79930000  0.38460000  0.77330000  1.0
  O  O193  1  0.95710000  0.38850000  0.82130000  1.0
  O  O194  1  0.10560000  0.24290000  0.06140000  1.0
  O  O195  1  0.00620000  0.18140000  0.10610000  1.0
  O  O196  1  0.45000000  0.13890000  0.16240000  1.0
  O  O197  1  0.30770000  0.20580000  0.14030000  1.0
  O  O198  1  0.16610000  0.32540000  0.89740000  1.0
  O  O199  1  0.24590000  0.34750000  0.82760000  1.0
  O  O200  1  0.59060000  0.36430000  0.76110000  1.0
  O  O201  1  0.61470000  0.46600000  0.69620000  1.0
  O  O202  1  0.47690000  0.72970000  0.72080000  1.0
  O  O203  1  0.38490000  0.74480000  0.79020000  1.0
  O  O204  1  0.11850000  0.49260000  0.82070000  1.0
  O  O205  1  0.14290000  0.43080000  0.68720000  1.0
  O  O206  1  0.70070000  0.88460000  0.72670000  1.0
  O  O207  1  0.54290000  0.88850000  0.67870000  1.0
  O  O208  1  0.39440000  0.74290000  0.43860000  1.0
  O  O209  1  0.49380000  0.68140000  0.39390000  1.0
  O  O210  1  0.05000000  0.63890000  0.33760000  1.0
  O  O211  1  0.19230000  0.70580000  0.35970000  1.0
  O  O212  1  0.33390000  0.82540000  0.60260000  1.0
  O  O213  1  0.25410000  0.84750000  0.67240000  1.0
  O  O214  1  0.90940000  0.86430000  0.73890000  1.0
  O  O215  1  0.88530000  0.96600000  0.80380000  1.0
  O  O216  1  0.02310000  0.22970000  0.77920000  1.0
  O  O217  1  0.11510000  0.24480000  0.70980000  1.0
  O  O218  1  0.38150000  0.99260000  0.67930000  1.0
  O  O219  1  0.35710000  0.93080000  0.81280000  1.0
  O  O220  1  0.20070000  0.61540000  0.22670000  1.0
  O  O221  1  0.04290000  0.61150000  0.17870000  1.0
  O  O222  1  0.89440000  0.75710000  0.93860000  1.0
  O  O223  1  0.99380000  0.81860000  0.89390000  1.0
  O  O224  1  0.55000000  0.86110000  0.83760000  1.0
  O  O225  1  0.69230000  0.79420000  0.85970000  1.0
  O  O226  1  0.83390000  0.67460000  0.10260000  1.0
  O  O227  1  0.75410000  0.65250000  0.17240000  1.0
  O  O228  1  0.40940000  0.63570000  0.23890000  1.0
  O  O229  1  0.38530000  0.53400000  0.30380000  1.0
  O  O230  1  0.52310000  0.27030000  0.27920000  1.0
  O  O231  1  0.61510000  0.25520000  0.20980000  1.0
  O  O232  1  0.88150000  0.50740000  0.17930000  1.0
  O  O233  1  0.85710000  0.56920000  0.31280000  1.0
  O  O234  1  0.29930000  0.11540000  0.27330000  1.0
  O  O235  1  0.45710000  0.11150000  0.32130000  1.0
  O  O236  1  0.60560000  0.25710000  0.56140000  1.0
  O  O237  1  0.50620000  0.31860000  0.60610000  1.0
  O  O238  1  0.95000000  0.36110000  0.66240000  1.0
  O  O239  1  0.80770000  0.29420000  0.64030000  1.0
  O  O240  1  0.66610000  0.17460000  0.39740000  1.0
  O  O241  1  0.74590000  0.15250000  0.32760000  1.0
  O  O242  1  0.09060000  0.13570000  0.26110000  1.0
  O  O243  1  0.11470000  0.03400000  0.19620000  1.0
  O  O244  1  0.97690000  0.77030000  0.22080000  1.0
  O  O245  1  0.88490000  0.75520000  0.29020000  1.0
  O  O246  1  0.61850000  0.00740000  0.32070000  1.0
  O  O247  1  0.64290000  0.06920000  0.18720000  1.0
