# generated using pymatgen
data_CdH5C9(NO2)2
_symmetry_space_group_name_H-M   'P 1'
_cell_length_a   23.28600000
_cell_length_b   17.25770000
_cell_length_c   18.22210000
_cell_angle_alpha   90.00000000
_cell_angle_beta   126.66100000
_cell_angle_gamma   90.00000000
_symmetry_Int_Tables_number   1
_chemical_formula_structural   CdH5C9(NO2)2
_chemical_formula_sum   'Cd16 H80 C144 N32 O64'
_cell_volume   5874.20747284
_cell_formula_units_Z   16
loop_
 _symmetry_equiv_pos_site_id
 _symmetry_equiv_pos_as_xyz
  1  'x, y, z'
loop_
 _atom_site_type_symbol
 _atom_site_label
 _atom_site_symmetry_multiplicity
 _atom_site_fract_x
 _atom_site_fract_y
 _atom_site_fract_z
 _atom_site_occupancy
  Cd  Cd0  1  0.22509000  0.14002000  0.21835000  1.0
  Cd  Cd1  1  0.28662000  0.38197000  0.27787000  1.0
  Cd  Cd2  1  0.72509000  0.64002000  0.21835000  1.0
  Cd  Cd3  1  0.78662000  0.88197000  0.27787000  1.0
  Cd  Cd4  1  0.77491000  0.14002000  0.28165000  1.0
  Cd  Cd5  1  0.71338000  0.38197000  0.22213000  1.0
  Cd  Cd6  1  0.27491000  0.64002000  0.28165000  1.0
  Cd  Cd7  1  0.21338000  0.88197000  0.22213000  1.0
  Cd  Cd8  1  0.77491000  0.85998000  0.78165000  1.0
  Cd  Cd9  1  0.71338000  0.61803000  0.72213000  1.0
  Cd  Cd10  1  0.27491000  0.35998000  0.78165000  1.0
  Cd  Cd11  1  0.21338000  0.11803000  0.72213000  1.0
  Cd  Cd12  1  0.22509000  0.85998000  0.71835000  1.0
  Cd  Cd13  1  0.28662000  0.61803000  0.77787000  1.0
  Cd  Cd14  1  0.72509000  0.35998000  0.71835000  1.0
  Cd  Cd15  1  0.78662000  0.11803000  0.77787000  1.0
  H  H16  1  0.01480000  0.95480000  0.20000000  1.0
  H  H17  1  0.01150000  0.18080000  0.19500000  1.0
  H  H18  1  0.07340000  0.03260000  0.14080000  1.0
  H  H19  1  0.99130000  0.03540000  0.06120000  1.0
  H  H20  1  0.00330000  0.30280000  0.99620000  1.0
  H  H21  1  0.27370000  0.51570000  0.00980000  1.0
  H  H22  1  0.32480000  0.24570000  0.07730000  1.0
  H  H23  1  0.32540000  0.25110000  0.16370000  1.0
  H  H24  1  0.43680000  0.27270000  0.09230000  1.0
  H  H25  1  0.44010000  0.27420000  0.31380000  1.0
  H  H26  1  0.51480000  0.45480000  0.20000000  1.0
  H  H27  1  0.51150000  0.68080000  0.19500000  1.0
  H  H28  1  0.57340000  0.53260000  0.14080000  1.0
  H  H29  1  0.49130000  0.53540000  0.06120000  1.0
  H  H30  1  0.50330000  0.80280000  0.99620000  1.0
  H  H31  1  0.77370000  0.01570000  0.00980000  1.0
  H  H32  1  0.82480000  0.74570000  0.07730000  1.0
  H  H33  1  0.82540000  0.75110000  0.16370000  1.0
  H  H34  1  0.93680000  0.77270000  0.09230000  1.0
  H  H35  1  0.94010000  0.77420000  0.31380000  1.0
  H  H36  1  0.98520000  0.95480000  0.30000000  1.0
  H  H37  1  0.98850000  0.18080000  0.30500000  1.0
  H  H38  1  0.92660000  0.03260000  0.35920000  1.0
  H  H39  1  0.00870000  0.03540000  0.43880000  1.0
  H  H40  1  0.99670000  0.30280000  0.50380000  1.0
  H  H41  1  0.72630000  0.51570000  0.49020000  1.0
  H  H42  1  0.67520000  0.24570000  0.42270000  1.0
  H  H43  1  0.67460000  0.25110000  0.33630000  1.0
  H  H44  1  0.56320000  0.27270000  0.40770000  1.0
  H  H45  1  0.55990000  0.27420000  0.18620000  1.0
  H  H46  1  0.48520000  0.45480000  0.30000000  1.0
  H  H47  1  0.48850000  0.68080000  0.30500000  1.0
  H  H48  1  0.42660000  0.53260000  0.35920000  1.0
  H  H49  1  0.50870000  0.53540000  0.43880000  1.0
  H  H50  1  0.49670000  0.80280000  0.50380000  1.0
  H  H51  1  0.22630000  0.01570000  0.49020000  1.0
  H  H52  1  0.17520000  0.74570000  0.42270000  1.0
  H  H53  1  0.17460000  0.75110000  0.33630000  1.0
  H  H54  1  0.06320000  0.77270000  0.40770000  1.0
  H  H55  1  0.05990000  0.77420000  0.18620000  1.0
  H  H56  1  0.98520000  0.04520000  0.80000000  1.0
  H  H57  1  0.98850000  0.81920000  0.80500000  1.0
  H  H58  1  0.92660000  0.96740000  0.85920000  1.0
  H  H59  1  0.00870000  0.96460000  0.93880000  1.0
  H  H60  1  0.99670000  0.69720000  0.00380000  1.0
  H  H61  1  0.72630000  0.48430000  0.99020000  1.0
  H  H62  1  0.67520000  0.75430000  0.92270000  1.0
  H  H63  1  0.67460000  0.74890000  0.83630000  1.0
  H  H64  1  0.56320000  0.72730000  0.90770000  1.0
  H  H65  1  0.55990000  0.72580000  0.68620000  1.0
  H  H66  1  0.48520000  0.54520000  0.80000000  1.0
  H  H67  1  0.48850000  0.31920000  0.80500000  1.0
  H  H68  1  0.42660000  0.46740000  0.85920000  1.0
  H  H69  1  0.50870000  0.46460000  0.93880000  1.0
  H  H70  1  0.49670000  0.19720000  0.00380000  1.0
  H  H71  1  0.22630000  0.98430000  0.99020000  1.0
  H  H72  1  0.17520000  0.25430000  0.92270000  1.0
  H  H73  1  0.17460000  0.24890000  0.83630000  1.0
  H  H74  1  0.06320000  0.22730000  0.90770000  1.0
  H  H75  1  0.05990000  0.22580000  0.68620000  1.0
  H  H76  1  0.01480000  0.04520000  0.70000000  1.0
  H  H77  1  0.01150000  0.81920000  0.69500000  1.0
  H  H78  1  0.07340000  0.96740000  0.64080000  1.0
  H  H79  1  0.99130000  0.96460000  0.56120000  1.0
  H  H80  1  0.00330000  0.69720000  0.49620000  1.0
  H  H81  1  0.27370000  0.48430000  0.50980000  1.0
  H  H82  1  0.32480000  0.75430000  0.57730000  1.0
  H  H83  1  0.32540000  0.74890000  0.66370000  1.0
  H  H84  1  0.43680000  0.72730000  0.59230000  1.0
  H  H85  1  0.44010000  0.72580000  0.81380000  1.0
  H  H86  1  0.51480000  0.54520000  0.70000000  1.0
  H  H87  1  0.51150000  0.31920000  0.69500000  1.0
  H  H88  1  0.57340000  0.46740000  0.64080000  1.0
  H  H89  1  0.49130000  0.46460000  0.56120000  1.0
  H  H90  1  0.50330000  0.19720000  0.49620000  1.0
  H  H91  1  0.77370000  0.98430000  0.50980000  1.0
  H  H92  1  0.82480000  0.25430000  0.57730000  1.0
  H  H93  1  0.82540000  0.24890000  0.66370000  1.0
  H  H94  1  0.93680000  0.22730000  0.59230000  1.0
  H  H95  1  0.94010000  0.22580000  0.81380000  1.0
  C  C96  1  0.00810000  0.00210000  0.21840000  1.0
  C  C97  1  0.00710000  0.13400000  0.21660000  1.0
  C  C98  1  0.01410000  0.06580000  0.18480000  1.0
  C  C99  1  0.03000000  0.06260000  0.11510000  1.0
  C  C100  1  0.98820000  0.18840000  0.01600000  1.0
  C  C101  1  0.02270000  0.25800000  0.03110000  1.0
  C  C102  1  0.09230000  0.24760000  0.10920000  1.0
  C  C103  1  0.28060000  0.53110000  0.17600000  1.0
  C  C104  1  0.15670000  0.30270000  0.15780000  1.0
  C  C105  1  0.29680000  0.36930000  0.95480000  1.0
  C  C106  1  0.29720000  0.39930000  0.03180000  1.0
  C  C107  1  0.28390000  0.47250000  0.04640000  1.0
  C  C108  1  0.28860000  0.47070000  0.12710000  1.0
  C  C109  1  0.91740000  0.15890000  0.93670000  1.0
  C  C110  1  0.34210000  0.27570000  0.13190000  1.0
  C  C111  1  0.42430000  0.27660000  0.19400000  1.0
  C  C112  1  0.46160000  0.27450000  0.15540000  1.0
  C  C113  1  0.46410000  0.27500000  0.28730000  1.0
  C  C114  1  0.50810000  0.50210000  0.21840000  1.0
  C  C115  1  0.50710000  0.63400000  0.21660000  1.0
  C  C116  1  0.51410000  0.56580000  0.18480000  1.0
  C  C117  1  0.53000000  0.56260000  0.11510000  1.0
  C  C118  1  0.48820000  0.68840000  0.01600000  1.0
  C  C119  1  0.52270000  0.75800000  0.03110000  1.0
  C  C120  1  0.59230000  0.74760000  0.10920000  1.0
  C  C121  1  0.78060000  0.03110000  0.17600000  1.0
  C  C122  1  0.65670000  0.80270000  0.15780000  1.0
  C  C123  1  0.79680000  0.86930000  0.95480000  1.0
  C  C124  1  0.79720000  0.89930000  0.03180000  1.0
  C  C125  1  0.78390000  0.97250000  0.04640000  1.0
  C  C126  1  0.78860000  0.97070000  0.12710000  1.0
  C  C127  1  0.41740000  0.65890000  0.93670000  1.0
  C  C128  1  0.84210000  0.77570000  0.13190000  1.0
  C  C129  1  0.92430000  0.77660000  0.19400000  1.0
  C  C130  1  0.96160000  0.77450000  0.15540000  1.0
  C  C131  1  0.96410000  0.77500000  0.28730000  1.0
  C  C132  1  0.99190000  0.00210000  0.28160000  1.0
  C  C133  1  0.99290000  0.13400000  0.28340000  1.0
  C  C134  1  0.98590000  0.06580000  0.31520000  1.0
  C  C135  1  0.97000000  0.06260000  0.38490000  1.0
  C  C136  1  0.01180000  0.18840000  0.48400000  1.0
  C  C137  1  0.97730000  0.25800000  0.46890000  1.0
  C  C138  1  0.90770000  0.24760000  0.39080000  1.0
  C  C139  1  0.71940000  0.53110000  0.32400000  1.0
  C  C140  1  0.84330000  0.30270000  0.34220000  1.0
  C  C141  1  0.70320000  0.36930000  0.54520000  1.0
  C  C142  1  0.70280000  0.39930000  0.46820000  1.0
  C  C143  1  0.71610000  0.47250000  0.45360000  1.0
  C  C144  1  0.71140000  0.47070000  0.37290000  1.0
  C  C145  1  0.08260000  0.15890000  0.56330000  1.0
  C  C146  1  0.65790000  0.27570000  0.36810000  1.0
  C  C147  1  0.57570000  0.27660000  0.30600000  1.0
  C  C148  1  0.53840000  0.27450000  0.34460000  1.0
  C  C149  1  0.53590000  0.27500000  0.21270000  1.0
  C  C150  1  0.49190000  0.50210000  0.28160000  1.0
  C  C151  1  0.49290000  0.63400000  0.28340000  1.0
  C  C152  1  0.48590000  0.56580000  0.31520000  1.0
  C  C153  1  0.47000000  0.56260000  0.38490000  1.0
  C  C154  1  0.51180000  0.68840000  0.48400000  1.0
  C  C155  1  0.47730000  0.75800000  0.46890000  1.0
  C  C156  1  0.40770000  0.74760000  0.39080000  1.0
  C  C157  1  0.21940000  0.03110000  0.32400000  1.0
  C  C158  1  0.34330000  0.80270000  0.34220000  1.0
  C  C159  1  0.20320000  0.86930000  0.54520000  1.0
  C  C160  1  0.20280000  0.89930000  0.46820000  1.0
  C  C161  1  0.21610000  0.97250000  0.45360000  1.0
  C  C162  1  0.21140000  0.97070000  0.37290000  1.0
  C  C163  1  0.58260000  0.65890000  0.56330000  1.0
  C  C164  1  0.15790000  0.77570000  0.36810000  1.0
  C  C165  1  0.07570000  0.77660000  0.30600000  1.0
  C  C166  1  0.03840000  0.77450000  0.34460000  1.0
  C  C167  1  0.03590000  0.77500000  0.21270000  1.0
  C  C168  1  0.99190000  0.99790000  0.78160000  1.0
  C  C169  1  0.99290000  0.86600000  0.78340000  1.0
  C  C170  1  0.98590000  0.93420000  0.81520000  1.0
  C  C171  1  0.97000000  0.93740000  0.88490000  1.0
  C  C172  1  0.01180000  0.81160000  0.98400000  1.0
  C  C173  1  0.97730000  0.74200000  0.96890000  1.0
  C  C174  1  0.90770000  0.75240000  0.89080000  1.0
  C  C175  1  0.71940000  0.46890000  0.82400000  1.0
  C  C176  1  0.84330000  0.69730000  0.84220000  1.0
  C  C177  1  0.70320000  0.63070000  0.04520000  1.0
  C  C178  1  0.70280000  0.60070000  0.96820000  1.0
  C  C179  1  0.71610000  0.52750000  0.95360000  1.0
  C  C180  1  0.71140000  0.52930000  0.87290000  1.0
  C  C181  1  0.08260000  0.84110000  0.06330000  1.0
  C  C182  1  0.65790000  0.72430000  0.86810000  1.0
  C  C183  1  0.57570000  0.72340000  0.80600000  1.0
  C  C184  1  0.53840000  0.72550000  0.84460000  1.0
  C  C185  1  0.53590000  0.72500000  0.71270000  1.0
  C  C186  1  0.49190000  0.49790000  0.78160000  1.0
  C  C187  1  0.49290000  0.36600000  0.78340000  1.0
  C  C188  1  0.48590000  0.43420000  0.81520000  1.0
  C  C189  1  0.47000000  0.43740000  0.88490000  1.0
  C  C190  1  0.51180000  0.31160000  0.98400000  1.0
  C  C191  1  0.47730000  0.24200000  0.96890000  1.0
  C  C192  1  0.40770000  0.25240000  0.89080000  1.0
  C  C193  1  0.21940000  0.96890000  0.82400000  1.0
  C  C194  1  0.34330000  0.19730000  0.84220000  1.0
  C  C195  1  0.20320000  0.13070000  0.04520000  1.0
  C  C196  1  0.20280000  0.10070000  0.96820000  1.0
  C  C197  1  0.21610000  0.02750000  0.95360000  1.0
  C  C198  1  0.21140000  0.02930000  0.87290000  1.0
  C  C199  1  0.58260000  0.34110000  0.06330000  1.0
  C  C200  1  0.15790000  0.22430000  0.86810000  1.0
  C  C201  1  0.07570000  0.22340000  0.80600000  1.0
  C  C202  1  0.03840000  0.22550000  0.84460000  1.0
  C  C203  1  0.03590000  0.22500000  0.71270000  1.0
  C  C204  1  0.00810000  0.99790000  0.71840000  1.0
  C  C205  1  0.00710000  0.86600000  0.71660000  1.0
  C  C206  1  0.01410000  0.93420000  0.68480000  1.0
  C  C207  1  0.03000000  0.93740000  0.61510000  1.0
  C  C208  1  0.98820000  0.81160000  0.51600000  1.0
  C  C209  1  0.02270000  0.74200000  0.53110000  1.0
  C  C210  1  0.09230000  0.75240000  0.60920000  1.0
  C  C211  1  0.28060000  0.46890000  0.67600000  1.0
  C  C212  1  0.15670000  0.69730000  0.65780000  1.0
  C  C213  1  0.29680000  0.63070000  0.45480000  1.0
  C  C214  1  0.29720000  0.60070000  0.53180000  1.0
  C  C215  1  0.28390000  0.52750000  0.54640000  1.0
  C  C216  1  0.28860000  0.52930000  0.62710000  1.0
  C  C217  1  0.91740000  0.84110000  0.43670000  1.0
  C  C218  1  0.34210000  0.72430000  0.63190000  1.0
  C  C219  1  0.42430000  0.72340000  0.69400000  1.0
  C  C220  1  0.46160000  0.72550000  0.65540000  1.0
  C  C221  1  0.46410000  0.72500000  0.78730000  1.0
  C  C222  1  0.50810000  0.49790000  0.71840000  1.0
  C  C223  1  0.50710000  0.36600000  0.71660000  1.0
  C  C224  1  0.51410000  0.43420000  0.68480000  1.0
  C  C225  1  0.53000000  0.43740000  0.61510000  1.0
  C  C226  1  0.48820000  0.31160000  0.51600000  1.0
  C  C227  1  0.52270000  0.24200000  0.53110000  1.0
  C  C228  1  0.59230000  0.25240000  0.60920000  1.0
  C  C229  1  0.78060000  0.96890000  0.67600000  1.0
  C  C230  1  0.65670000  0.19730000  0.65780000  1.0
  C  C231  1  0.79680000  0.13070000  0.45480000  1.0
  C  C232  1  0.79720000  0.10070000  0.53180000  1.0
  C  C233  1  0.78390000  0.02750000  0.54640000  1.0
  C  C234  1  0.78860000  0.02930000  0.62710000  1.0
  C  C235  1  0.41740000  0.34110000  0.43670000  1.0
  C  C236  1  0.84210000  0.22430000  0.63190000  1.0
  C  C237  1  0.92430000  0.22340000  0.69400000  1.0
  C  C238  1  0.96160000  0.22550000  0.65540000  1.0
  C  C239  1  0.96410000  0.22500000  0.78730000  1.0
  N  N240  1  0.10170000  0.17640000  0.14100000  1.0
  N  N241  1  0.03930000  0.13900000  0.08670000  1.0
  N  N242  1  0.30720000  0.39800000  0.16320000  1.0
  N  N243  1  0.31310000  0.35580000  0.10550000  1.0
  N  N244  1  0.60170000  0.67640000  0.14100000  1.0
  N  N245  1  0.53930000  0.63900000  0.08670000  1.0
  N  N246  1  0.80720000  0.89800000  0.16320000  1.0
  N  N247  1  0.81310000  0.85580000  0.10550000  1.0
  N  N248  1  0.89830000  0.17640000  0.35900000  1.0
  N  N249  1  0.96070000  0.13900000  0.41330000  1.0
  N  N250  1  0.69280000  0.39800000  0.33680000  1.0
  N  N251  1  0.68690000  0.35580000  0.39450000  1.0
  N  N252  1  0.39830000  0.67640000  0.35900000  1.0
  N  N253  1  0.46070000  0.63900000  0.41330000  1.0
  N  N254  1  0.19280000  0.89800000  0.33680000  1.0
  N  N255  1  0.18690000  0.85580000  0.39450000  1.0
  N  N256  1  0.89830000  0.82360000  0.85900000  1.0
  N  N257  1  0.96070000  0.86100000  0.91330000  1.0
  N  N258  1  0.69280000  0.60200000  0.83680000  1.0
  N  N259  1  0.68690000  0.64420000  0.89450000  1.0
  N  N260  1  0.39830000  0.32360000  0.85900000  1.0
  N  N261  1  0.46070000  0.36100000  0.91330000  1.0
  N  N262  1  0.19280000  0.10200000  0.83680000  1.0
  N  N263  1  0.18690000  0.14420000  0.89450000  1.0
  N  N264  1  0.10170000  0.82360000  0.64100000  1.0
  N  N265  1  0.03930000  0.86100000  0.58670000  1.0
  N  N266  1  0.30720000  0.60200000  0.66320000  1.0
  N  N267  1  0.31310000  0.64420000  0.60550000  1.0
  N  N268  1  0.60170000  0.32360000  0.64100000  1.0
  N  N269  1  0.53930000  0.36100000  0.58670000  1.0
  N  N270  1  0.80720000  0.10200000  0.66320000  1.0
  N  N271  1  0.81310000  0.14420000  0.60550000  1.0
  O  O272  1  0.15050000  0.37230000  0.13500000  1.0
  O  O273  1  0.21670000  0.27330000  0.22230000  1.0
  O  O274  1  0.28290000  0.51110000  0.24510000  1.0
  O  O275  1  0.27150000  0.60120000  0.15100000  1.0
  O  O276  1  0.27980000  0.41960000  0.89410000  1.0
  O  O277  1  0.30960000  0.30160000  0.95000000  1.0
  O  O278  1  0.90370000  0.09030000  0.91940000  1.0
  O  O279  1  0.87290000  0.21120000  0.88460000  1.0
  O  O280  1  0.65050000  0.87230000  0.13500000  1.0
  O  O281  1  0.71670000  0.77330000  0.22230000  1.0
  O  O282  1  0.78290000  0.01110000  0.24510000  1.0
  O  O283  1  0.77150000  0.10120000  0.15100000  1.0
  O  O284  1  0.77980000  0.91960000  0.89410000  1.0
  O  O285  1  0.80960000  0.80160000  0.95000000  1.0
  O  O286  1  0.40370000  0.59030000  0.91940000  1.0
  O  O287  1  0.37290000  0.71120000  0.88460000  1.0
  O  O288  1  0.84950000  0.37230000  0.36500000  1.0
  O  O289  1  0.78330000  0.27330000  0.27770000  1.0
  O  O290  1  0.71710000  0.51110000  0.25490000  1.0
  O  O291  1  0.72850000  0.60120000  0.34900000  1.0
  O  O292  1  0.72020000  0.41960000  0.60590000  1.0
  O  O293  1  0.69040000  0.30160000  0.55000000  1.0
  O  O294  1  0.09630000  0.09030000  0.58060000  1.0
  O  O295  1  0.12710000  0.21120000  0.61540000  1.0
  O  O296  1  0.34950000  0.87230000  0.36500000  1.0
  O  O297  1  0.28330000  0.77330000  0.27770000  1.0
  O  O298  1  0.21710000  0.01110000  0.25490000  1.0
  O  O299  1  0.22850000  0.10120000  0.34900000  1.0
  O  O300  1  0.22020000  0.91960000  0.60590000  1.0
  O  O301  1  0.19040000  0.80160000  0.55000000  1.0
  O  O302  1  0.59630000  0.59030000  0.58060000  1.0
  O  O303  1  0.62710000  0.71120000  0.61540000  1.0
  O  O304  1  0.84950000  0.62770000  0.86500000  1.0
  O  O305  1  0.78330000  0.72670000  0.77770000  1.0
  O  O306  1  0.71710000  0.48890000  0.75490000  1.0
  O  O307  1  0.72850000  0.39880000  0.84900000  1.0
  O  O308  1  0.72020000  0.58040000  0.10590000  1.0
  O  O309  1  0.69040000  0.69840000  0.05000000  1.0
  O  O310  1  0.09630000  0.90970000  0.08060000  1.0
  O  O311  1  0.12710000  0.78880000  0.11540000  1.0
  O  O312  1  0.34950000  0.12770000  0.86500000  1.0
  O  O313  1  0.28330000  0.22670000  0.77770000  1.0
  O  O314  1  0.21710000  0.98890000  0.75490000  1.0
  O  O315  1  0.22850000  0.89880000  0.84900000  1.0
  O  O316  1  0.22020000  0.08040000  0.10590000  1.0
  O  O317  1  0.19040000  0.19840000  0.05000000  1.0
  O  O318  1  0.59630000  0.40970000  0.08060000  1.0
  O  O319  1  0.62710000  0.28880000  0.11540000  1.0
  O  O320  1  0.15050000  0.62770000  0.63500000  1.0
  O  O321  1  0.21670000  0.72670000  0.72230000  1.0
  O  O322  1  0.28290000  0.48890000  0.74510000  1.0
  O  O323  1  0.27150000  0.39880000  0.65100000  1.0
  O  O324  1  0.27980000  0.58040000  0.39410000  1.0
  O  O325  1  0.30960000  0.69840000  0.45000000  1.0
  O  O326  1  0.90370000  0.90970000  0.41940000  1.0
  O  O327  1  0.87290000  0.78880000  0.38460000  1.0
  O  O328  1  0.65050000  0.12770000  0.63500000  1.0
  O  O329  1  0.71670000  0.22670000  0.72230000  1.0
  O  O330  1  0.78290000  0.98890000  0.74510000  1.0
  O  O331  1  0.77150000  0.89880000  0.65100000  1.0
  O  O332  1  0.77980000  0.08040000  0.39410000  1.0
  O  O333  1  0.80960000  0.19840000  0.45000000  1.0
  O  O334  1  0.40370000  0.40970000  0.41940000  1.0
  O  O335  1  0.37290000  0.28880000  0.38460000  1.0
