# generated using pymatgen
data_Er4H28C15N3O16
_symmetry_space_group_name_H-M   'P 1'
_cell_length_a   14.61900000
_cell_length_b   17.21100000
_cell_length_c   21.21500000
_cell_angle_alpha   90.00000000
_cell_angle_beta   90.00000000
_cell_angle_gamma   90.00000000
_symmetry_Int_Tables_number   1
_chemical_formula_structural   Er4H28C15N3O16
_chemical_formula_sum   'Er16 H112 C60 N12 O64'
_cell_volume   5337.85542493
_cell_formula_units_Z   4
loop_
 _symmetry_equiv_pos_site_id
 _symmetry_equiv_pos_as_xyz
  1  'x, y, z'
loop_
 _atom_site_type_symbol
 _atom_site_label
 _atom_site_symmetry_multiplicity
 _atom_site_fract_x
 _atom_site_fract_y
 _atom_site_fract_z
 _atom_site_occupancy
  Er  Er0  1  0.72490000  0.56070000  0.94260000  1.0
  Er  Er1  1  0.62670000  0.36070000  0.94370000  1.0
  Er  Er2  1  0.50140000  0.52290000  0.86110000  1.0
  Er  Er3  1  0.51750000  0.51560000  0.03790000  1.0
  Er  Er4  1  0.77510000  0.43930000  0.44260000  1.0
  Er  Er5  1  0.87330000  0.63930000  0.44370000  1.0
  Er  Er6  1  0.99860000  0.47710000  0.36110000  1.0
  Er  Er7  1  0.98250000  0.48440000  0.53790000  1.0
  Er  Er8  1  0.27510000  0.06070000  0.55740000  1.0
  Er  Er9  1  0.37330000  0.86070000  0.55630000  1.0
  Er  Er10  1  0.49860000  0.02290000  0.63890000  1.0
  Er  Er11  1  0.48250000  0.01560000  0.46210000  1.0
  Er  Er12  1  0.22490000  0.93930000  0.05740000  1.0
  Er  Er13  1  0.12670000  0.13930000  0.05630000  1.0
  Er  Er14  1  0.00140000  0.97710000  0.13890000  1.0
  Er  Er15  1  0.01750000  0.98440000  0.96210000  1.0
  H  H16  1  0.55190000  0.64010000  0.94930000  1.0
  H  H17  1  0.67840000  0.45930000  0.83680000  1.0
  H  H18  1  0.43580000  0.41030000  0.94930000  1.0
  H  H19  1  0.69860000  0.45390000  0.04210000  1.0
  H  H20  1  0.47810000  0.69620000  0.78170000  1.0
  H  H21  1  0.43560000  0.71010000  0.71910000  1.0
  H  H22  1  0.40770000  0.75780000  0.77420000  1.0
  H  H23  1  0.53760000  0.82270000  0.77860000  1.0
  H  H24  1  0.60600000  0.70750000  0.69520000  1.0
  H  H25  1  0.65410000  0.79050000  0.69780000  1.0
  H  H26  1  0.68880000  0.76890000  0.80490000  1.0
  H  H27  1  0.73990000  0.71210000  0.75740000  1.0
  H  H28  1  0.02750000  0.41500000  0.81600000  1.0
  H  H29  1  0.99420000  0.46280000  0.86950000  1.0
  H  H30  1  0.94540000  0.46490000  0.80810000  1.0
  H  H31  1  0.89330000  0.33980000  0.81880000  1.0
  H  H32  1  0.98770000  0.33630000  0.93790000  1.0
  H  H33  1  0.03340000  0.30200000  0.87520000  1.0
  H  H34  1  0.86780000  0.24370000  0.93200000  1.0
  H  H35  1  0.90540000  0.21250000  0.86590000  1.0
  H  H36  1  0.72150000  0.76910000  0.97220000  1.0
  H  H37  1  0.82270000  0.77660000  0.97120000  1.0
  H  H38  1  0.76490000  0.83730000  0.94140000  1.0
  H  H39  1  0.71280000  0.88340000  0.03300000  1.0
  H  H40  1  0.75460000  0.82220000  0.13050000  1.0
  H  H41  1  0.79440000  0.75120000  0.09080000  1.0
  H  H42  1  0.63570000  0.74520000  0.13750000  1.0
  H  H43  1  0.60780000  0.78890000  0.07400000  1.0
  H  H44  1  0.94810000  0.35990000  0.44930000  1.0
  H  H45  1  0.82160000  0.54070000  0.33680000  1.0
  H  H46  1  0.06420000  0.58970000  0.44930000  1.0
  H  H47  1  0.80140000  0.54610000  0.54210000  1.0
  H  H48  1  0.02190000  0.30380000  0.28170000  1.0
  H  H49  1  0.06440000  0.28990000  0.21910000  1.0
  H  H50  1  0.09230000  0.24220000  0.27420000  1.0
  H  H51  1  0.96240000  0.17730000  0.27860000  1.0
  H  H52  1  0.89400000  0.29250000  0.19520000  1.0
  H  H53  1  0.84590000  0.20950000  0.19780000  1.0
  H  H54  1  0.81120000  0.23110000  0.30490000  1.0
  H  H55  1  0.76010000  0.28790000  0.25740000  1.0
  H  H56  1  0.47250000  0.58500000  0.31600000  1.0
  H  H57  1  0.50580000  0.53720000  0.36950000  1.0
  H  H58  1  0.55460000  0.53510000  0.30810000  1.0
  H  H59  1  0.60670000  0.66020000  0.31880000  1.0
  H  H60  1  0.51230000  0.66370000  0.43790000  1.0
  H  H61  1  0.46660000  0.69800000  0.37520000  1.0
  H  H62  1  0.63220000  0.75630000  0.43200000  1.0
  H  H63  1  0.59460000  0.78750000  0.36590000  1.0
  H  H64  1  0.77850000  0.23090000  0.47220000  1.0
  H  H65  1  0.67730000  0.22340000  0.47120000  1.0
  H  H66  1  0.73510000  0.16270000  0.44140000  1.0
  H  H67  1  0.78720000  0.11660000  0.53300000  1.0
  H  H68  1  0.74540000  0.17780000  0.63050000  1.0
  H  H69  1  0.70560000  0.24880000  0.59080000  1.0
  H  H70  1  0.86430000  0.25480000  0.63750000  1.0
  H  H71  1  0.89220000  0.21110000  0.57400000  1.0
  H  H72  1  0.44810000  0.14010000  0.55070000  1.0
  H  H73  1  0.32160000  0.95930000  0.66320000  1.0
  H  H74  1  0.56420000  0.91030000  0.55070000  1.0
  H  H75  1  0.30140000  0.95390000  0.45790000  1.0
  H  H76  1  0.52190000  0.19620000  0.71830000  1.0
  H  H77  1  0.56440000  0.21010000  0.78090000  1.0
  H  H78  1  0.59230000  0.25780000  0.72580000  1.0
  H  H79  1  0.46240000  0.32270000  0.72140000  1.0
  H  H80  1  0.39400000  0.20750000  0.80480000  1.0
  H  H81  1  0.34590000  0.29050000  0.80220000  1.0
  H  H82  1  0.31120000  0.26890000  0.69510000  1.0
  H  H83  1  0.26010000  0.21210000  0.74260000  1.0
  H  H84  1  0.97250000  0.91500000  0.68400000  1.0
  H  H85  1  0.00580000  0.96280000  0.63050000  1.0
  H  H86  1  0.05460000  0.96490000  0.69190000  1.0
  H  H87  1  0.10670000  0.83980000  0.68120000  1.0
  H  H88  1  0.01230000  0.83630000  0.56210000  1.0
  H  H89  1  0.96660000  0.80200000  0.62480000  1.0
  H  H90  1  0.13220000  0.74370000  0.56800000  1.0
  H  H91  1  0.09460000  0.71250000  0.63410000  1.0
  H  H92  1  0.27850000  0.26910000  0.52780000  1.0
  H  H93  1  0.17730000  0.27660000  0.52880000  1.0
  H  H94  1  0.23510000  0.33730000  0.55860000  1.0
  H  H95  1  0.28720000  0.38340000  0.46700000  1.0
  H  H96  1  0.24540000  0.32220000  0.36950000  1.0
  H  H97  1  0.20560000  0.25120000  0.40920000  1.0
  H  H98  1  0.36430000  0.24520000  0.36250000  1.0
  H  H99  1  0.39220000  0.28890000  0.42600000  1.0
  H  H100  1  0.05190000  0.85990000  0.05070000  1.0
  H  H101  1  0.17840000  0.04070000  0.16320000  1.0
  H  H102  1  0.93580000  0.08970000  0.05070000  1.0
  H  H103  1  0.19860000  0.04610000  0.95790000  1.0
  H  H104  1  0.97810000  0.80380000  0.21830000  1.0
  H  H105  1  0.93560000  0.78990000  0.28090000  1.0
  H  H106  1  0.90770000  0.74220000  0.22580000  1.0
  H  H107  1  0.03760000  0.67730000  0.22140000  1.0
  H  H108  1  0.10600000  0.79250000  0.30480000  1.0
  H  H109  1  0.15410000  0.70950000  0.30220000  1.0
  H  H110  1  0.18880000  0.73110000  0.19510000  1.0
  H  H111  1  0.23990000  0.78790000  0.24260000  1.0
  H  H112  1  0.52750000  0.08500000  0.18400000  1.0
  H  H113  1  0.49420000  0.03720000  0.13050000  1.0
  H  H114  1  0.44540000  0.03510000  0.19190000  1.0
  H  H115  1  0.39330000  0.16020000  0.18120000  1.0
  H  H116  1  0.48770000  0.16370000  0.06210000  1.0
  H  H117  1  0.53340000  0.19800000  0.12480000  1.0
  H  H118  1  0.36780000  0.25630000  0.06800000  1.0
  H  H119  1  0.40540000  0.28750000  0.13410000  1.0
  H  H120  1  0.22150000  0.73090000  0.02780000  1.0
  H  H121  1  0.32270000  0.72340000  0.02880000  1.0
  H  H122  1  0.26490000  0.66270000  0.05860000  1.0
  H  H123  1  0.21280000  0.61660000  0.96700000  1.0
  H  H124  1  0.25460000  0.67780000  0.86950000  1.0
  H  H125  1  0.29440000  0.74880000  0.90920000  1.0
  H  H126  1  0.13570000  0.75480000  0.86250000  1.0
  H  H127  1  0.10780000  0.71110000  0.92600000  1.0
  C  C128  1  0.49880000  0.84260000  0.68770000  1.0
  C  C129  1  0.52750000  0.78990000  0.74030000  1.0
  C  C130  1  0.61890000  0.75240000  0.72300000  1.0
  C  C131  1  0.67950000  0.72460000  0.77580000  1.0
  C  C132  1  0.64960000  0.65390000  0.81620000  1.0
  C  C133  1  0.83540000  0.40190000  0.89390000  1.0
  C  C134  1  0.91690000  0.36800000  0.85660000  1.0
  C  C135  1  0.97440000  0.31190000  0.89660000  1.0
  C  C136  1  0.92410000  0.23370000  0.90740000  1.0
  C  C137  1  0.97960000  0.17410000  0.94090000  1.0
  C  C138  1  0.85120000  0.89690000  0.04190000  1.0
  C  C139  1  0.76600000  0.84700000  0.03560000  1.0
  C  C140  1  0.74700000  0.79230000  0.09100000  1.0
  C  C141  1  0.65290000  0.75280000  0.09280000  1.0
  C  C142  1  0.64460000  0.67560000  0.05950000  1.0
  C  C143  1  0.00120000  0.15740000  0.18770000  1.0
  C  C144  1  0.97250000  0.21010000  0.24030000  1.0
  C  C145  1  0.88110000  0.24760000  0.22300000  1.0
  C  C146  1  0.82050000  0.27540000  0.27580000  1.0
  C  C147  1  0.85040000  0.34610000  0.31620000  1.0
  C  C148  1  0.66460000  0.59810000  0.39390000  1.0
  C  C149  1  0.58310000  0.63200000  0.35660000  1.0
  C  C150  1  0.52560000  0.68810000  0.39660000  1.0
  C  C151  1  0.57590000  0.76630000  0.40740000  1.0
  C  C152  1  0.52040000  0.82590000  0.44090000  1.0
  C  C153  1  0.64880000  0.10310000  0.54190000  1.0
  C  C154  1  0.73400000  0.15300000  0.53560000  1.0
  C  C155  1  0.75300000  0.20770000  0.59100000  1.0
  C  C156  1  0.84710000  0.24720000  0.59280000  1.0
  C  C157  1  0.85540000  0.32440000  0.55950000  1.0
  C  C158  1  0.50120000  0.34260000  0.81230000  1.0
  C  C159  1  0.47250000  0.28990000  0.75970000  1.0
  C  C160  1  0.38110000  0.25240000  0.77700000  1.0
  C  C161  1  0.32050000  0.22460000  0.72420000  1.0
  C  C162  1  0.35040000  0.15390000  0.68380000  1.0
  C  C163  1  0.16460000  0.90190000  0.60610000  1.0
  C  C164  1  0.08310000  0.86800000  0.64340000  1.0
  C  C165  1  0.02560000  0.81190000  0.60340000  1.0
  C  C166  1  0.07590000  0.73370000  0.59260000  1.0
  C  C167  1  0.02040000  0.67410000  0.55910000  1.0
  C  C168  1  0.14880000  0.39690000  0.45810000  1.0
  C  C169  1  0.23400000  0.34700000  0.46440000  1.0
  C  C170  1  0.25300000  0.29230000  0.40900000  1.0
  C  C171  1  0.34710000  0.25280000  0.40720000  1.0
  C  C172  1  0.35540000  0.17560000  0.44050000  1.0
  C  C173  1  0.99880000  0.65740000  0.31230000  1.0
  C  C174  1  0.02750000  0.71010000  0.25970000  1.0
  C  C175  1  0.11890000  0.74760000  0.27700000  1.0
  C  C176  1  0.17950000  0.77540000  0.22420000  1.0
  C  C177  1  0.14960000  0.84610000  0.18380000  1.0
  C  C178  1  0.33540000  0.09810000  0.10610000  1.0
  C  C179  1  0.41690000  0.13200000  0.14340000  1.0
  C  C180  1  0.47440000  0.18810000  0.10340000  1.0
  C  C181  1  0.42410000  0.26630000  0.09260000  1.0
  C  C182  1  0.47960000  0.32590000  0.05910000  1.0
  C  C183  1  0.35120000  0.60310000  0.95810000  1.0
  C  C184  1  0.26600000  0.65300000  0.96440000  1.0
  C  C185  1  0.24700000  0.70770000  0.90900000  1.0
  C  C186  1  0.15290000  0.74720000  0.90720000  1.0
  C  C187  1  0.14460000  0.82440000  0.94050000  1.0
  N  N188  1  0.45530000  0.73310000  0.75520000  1.0
  N  N189  1  0.97690000  0.43420000  0.83550000  1.0
  N  N190  1  0.76910000  0.80310000  0.97400000  1.0
  N  N191  1  0.04470000  0.26690000  0.25520000  1.0
  N  N192  1  0.52310000  0.56580000  0.33550000  1.0
  N  N193  1  0.73090000  0.19690000  0.47400000  1.0
  N  N194  1  0.54470000  0.23310000  0.74480000  1.0
  N  N195  1  0.02310000  0.93420000  0.66450000  1.0
  N  N196  1  0.23090000  0.30310000  0.52600000  1.0
  N  N197  1  0.95530000  0.76690000  0.24480000  1.0
  N  N198  1  0.47690000  0.06580000  0.16450000  1.0
  N  N199  1  0.26910000  0.69690000  0.02600000  1.0
  O  O200  1  0.56690000  0.58350000  0.94740000  1.0
  O  O201  1  0.64540000  0.47130000  0.87690000  1.0
  O  O202  1  0.49390000  0.44080000  0.94770000  1.0
  O  O203  1  0.65870000  0.46760000  0.00540000  1.0
  O  O204  1  0.53390000  0.90750000  0.68820000  1.0
  O  O205  1  0.44390000  0.81520000  0.64710000  1.0
  O  O206  1  0.70870000  0.63530000  0.85400000  1.0
  O  O207  1  0.56980000  0.62780000  0.81150000  1.0
  O  O208  1  0.83670000  0.47290000  0.90720000  1.0
  O  O209  1  0.77370000  0.35520000  0.90450000  1.0
  O  O210  1  0.03660000  0.19600000  0.98050000  1.0
  O  O211  1  0.96620000  0.10410000  0.92710000  1.0
  O  O212  1  0.87720000  0.91280000  0.09670000  1.0
  O  O213  1  0.88610000  0.92150000  0.99160000  1.0
  O  O214  1  0.57860000  0.63260000  0.07350000  1.0
  O  O215  1  0.70280000  0.65940000  0.01650000  1.0
  O  O216  1  0.93310000  0.41650000  0.44740000  1.0
  O  O217  1  0.85460000  0.52870000  0.37690000  1.0
  O  O218  1  0.00610000  0.55920000  0.44770000  1.0
  O  O219  1  0.84130000  0.53240000  0.50540000  1.0
  O  O220  1  0.96610000  0.09250000  0.18820000  1.0
  O  O221  1  0.05610000  0.18480000  0.14710000  1.0
  O  O222  1  0.79130000  0.36470000  0.35400000  1.0
  O  O223  1  0.93020000  0.37220000  0.31150000  1.0
  O  O224  1  0.66330000  0.52710000  0.40720000  1.0
  O  O225  1  0.72630000  0.64480000  0.40450000  1.0
  O  O226  1  0.46340000  0.80400000  0.48050000  1.0
  O  O227  1  0.53380000  0.89590000  0.42710000  1.0
  O  O228  1  0.62280000  0.08720000  0.59670000  1.0
  O  O229  1  0.61390000  0.07850000  0.49160000  1.0
  O  O230  1  0.92140000  0.36740000  0.57350000  1.0
  O  O231  1  0.79720000  0.34060000  0.51650000  1.0
  O  O232  1  0.43310000  0.08350000  0.55260000  1.0
  O  O233  1  0.35460000  0.97130000  0.62310000  1.0
  O  O234  1  0.50610000  0.94080000  0.55230000  1.0
  O  O235  1  0.34130000  0.96760000  0.49460000  1.0
  O  O236  1  0.46610000  0.40750000  0.81180000  1.0
  O  O237  1  0.55610000  0.31520000  0.85290000  1.0
  O  O238  1  0.29130000  0.13530000  0.64600000  1.0
  O  O239  1  0.43020000  0.12780000  0.68850000  1.0
  O  O240  1  0.16330000  0.97290000  0.59280000  1.0
  O  O241  1  0.22630000  0.85520000  0.59550000  1.0
  O  O242  1  0.96340000  0.69600000  0.51950000  1.0
  O  O243  1  0.03380000  0.60410000  0.57290000  1.0
  O  O244  1  0.12280000  0.41280000  0.40330000  1.0
  O  O245  1  0.11390000  0.42150000  0.50840000  1.0
  O  O246  1  0.42140000  0.13260000  0.42650000  1.0
  O  O247  1  0.29720000  0.15940000  0.48350000  1.0
  O  O248  1  0.06690000  0.91650000  0.05260000  1.0
  O  O249  1  0.14540000  0.02870000  0.12310000  1.0
  O  O250  1  0.99390000  0.05920000  0.05230000  1.0
  O  O251  1  0.15870000  0.03240000  0.99460000  1.0
  O  O252  1  0.03390000  0.59250000  0.31180000  1.0
  O  O253  1  0.94390000  0.68480000  0.35290000  1.0
  O  O254  1  0.20870000  0.86470000  0.14600000  1.0
  O  O255  1  0.06980000  0.87220000  0.18850000  1.0
  O  O256  1  0.33670000  0.02710000  0.09280000  1.0
  O  O257  1  0.27370000  0.14480000  0.09550000  1.0
  O  O258  1  0.53660000  0.30400000  0.01950000  1.0
  O  O259  1  0.46620000  0.39590000  0.07290000  1.0
  O  O260  1  0.37720000  0.58720000  0.90330000  1.0
  O  O261  1  0.38610000  0.57850000  0.00840000  1.0
  O  O262  1  0.07860000  0.86740000  0.92650000  1.0
  O  O263  1  0.20280000  0.84060000  0.98350000  1.0
