# generated using pymatgen
data_CdH11C18(NO2)3
_symmetry_space_group_name_H-M   'P 1'
_cell_length_a   24.64100000
_cell_length_b   12.46800000
_cell_length_c   15.42700000
_cell_angle_alpha   90.00000000
_cell_angle_beta   90.00000000
_cell_angle_gamma   90.00000000
_symmetry_Int_Tables_number   1
_chemical_formula_structural   CdH11C18(NO2)3
_chemical_formula_sum   'Cd8 H88 C144 N24 O48'
_cell_volume   4739.54446288
_cell_formula_units_Z   8
loop_
 _symmetry_equiv_pos_site_id
 _symmetry_equiv_pos_as_xyz
  1  'x, y, z'
loop_
 _atom_site_type_symbol
 _atom_site_label
 _atom_site_symmetry_multiplicity
 _atom_site_fract_x
 _atom_site_fract_y
 _atom_site_fract_z
 _atom_site_occupancy
  Cd  Cd0  1  0.23602000  0.82527000  0.57756000  1.0
  Cd  Cd1  1  0.26398000  0.67473000  0.07756000  1.0
  Cd  Cd2  1  0.76398000  0.82527000  0.92244000  1.0
  Cd  Cd3  1  0.73602000  0.67473000  0.42244000  1.0
  Cd  Cd4  1  0.76398000  0.17473000  0.42244000  1.0
  Cd  Cd5  1  0.73602000  0.32527000  0.92244000  1.0
  Cd  Cd6  1  0.23602000  0.17473000  0.07756000  1.0
  Cd  Cd7  1  0.26398000  0.32527000  0.57756000  1.0
  H  H8  1  0.17410000  0.33590000  0.28060000  1.0
  H  H9  1  0.10400000  0.44820000  0.31010000  1.0
  H  H10  1  0.11890000  0.60760000  0.38830000  1.0
  H  H11  1  0.41630000  0.62310000  0.30250000  1.0
  H  H12  1  0.44650000  0.57120000  0.43870000  1.0
  H  H13  1  0.38430000  0.51010000  0.53950000  1.0
  H  H14  1  0.35450000  0.75500000  0.51580000  1.0
  H  H15  1  0.44150000  0.81700000  0.49510000  1.0
  H  H16  1  0.39840000  0.09380000  0.60360000  1.0
  H  H17  1  0.31410000  0.02450000  0.62540000  1.0
  H  H18  1  0.49170000  0.07900000  0.55460000  1.0
  H  H19  1  0.32590000  0.16410000  0.78060000  1.0
  H  H20  1  0.39600000  0.05180000  0.81010000  1.0
  H  H21  1  0.38110000  0.89240000  0.88830000  1.0
  H  H22  1  0.08370000  0.87690000  0.80250000  1.0
  H  H23  1  0.05350000  0.92880000  0.93870000  1.0
  H  H24  1  0.11570000  0.98990000  0.03950000  1.0
  H  H25  1  0.14550000  0.74500000  0.01580000  1.0
  H  H26  1  0.05850000  0.68300000  0.99510000  1.0
  H  H27  1  0.10160000  0.40620000  0.10360000  1.0
  H  H28  1  0.18590000  0.47550000  0.12540000  1.0
  H  H29  1  0.00830000  0.42100000  0.05460000  1.0
  H  H30  1  0.82590000  0.33590000  0.21940000  1.0
  H  H31  1  0.89600000  0.44820000  0.18990000  1.0
  H  H32  1  0.88110000  0.60760000  0.11170000  1.0
  H  H33  1  0.58370000  0.62310000  0.19750000  1.0
  H  H34  1  0.55350000  0.57120000  0.06130000  1.0
  H  H35  1  0.61570000  0.51010000  0.96050000  1.0
  H  H36  1  0.64550000  0.75500000  0.98420000  1.0
  H  H37  1  0.55850000  0.81700000  0.00490000  1.0
  H  H38  1  0.60160000  0.09380000  0.89640000  1.0
  H  H39  1  0.68590000  0.02450000  0.87460000  1.0
  H  H40  1  0.50830000  0.07900000  0.94540000  1.0
  H  H41  1  0.67410000  0.16410000  0.71940000  1.0
  H  H42  1  0.60400000  0.05180000  0.68990000  1.0
  H  H43  1  0.61890000  0.89240000  0.61170000  1.0
  H  H44  1  0.91630000  0.87690000  0.69750000  1.0
  H  H45  1  0.94650000  0.92880000  0.56130000  1.0
  H  H46  1  0.88430000  0.98990000  0.46050000  1.0
  H  H47  1  0.85450000  0.74500000  0.48420000  1.0
  H  H48  1  0.94150000  0.68300000  0.50490000  1.0
  H  H49  1  0.89840000  0.40620000  0.39640000  1.0
  H  H50  1  0.81410000  0.47550000  0.37460000  1.0
  H  H51  1  0.99170000  0.42100000  0.44540000  1.0
  H  H52  1  0.82590000  0.66410000  0.71940000  1.0
  H  H53  1  0.89600000  0.55180000  0.68990000  1.0
  H  H54  1  0.88110000  0.39240000  0.61170000  1.0
  H  H55  1  0.58370000  0.37690000  0.69750000  1.0
  H  H56  1  0.55350000  0.42880000  0.56130000  1.0
  H  H57  1  0.61570000  0.48990000  0.46050000  1.0
  H  H58  1  0.64550000  0.24500000  0.48420000  1.0
  H  H59  1  0.55850000  0.18300000  0.50490000  1.0
  H  H60  1  0.60160000  0.90620000  0.39640000  1.0
  H  H61  1  0.68590000  0.97550000  0.37460000  1.0
  H  H62  1  0.50830000  0.92100000  0.44540000  1.0
  H  H63  1  0.67410000  0.83590000  0.21940000  1.0
  H  H64  1  0.60400000  0.94820000  0.18990000  1.0
  H  H65  1  0.61890000  0.10760000  0.11170000  1.0
  H  H66  1  0.91630000  0.12310000  0.19750000  1.0
  H  H67  1  0.94650000  0.07120000  0.06130000  1.0
  H  H68  1  0.88430000  0.01010000  0.96050000  1.0
  H  H69  1  0.85450000  0.25500000  0.98420000  1.0
  H  H70  1  0.94150000  0.31700000  0.00490000  1.0
  H  H71  1  0.89840000  0.59380000  0.89640000  1.0
  H  H72  1  0.81410000  0.52450000  0.87460000  1.0
  H  H73  1  0.99170000  0.57900000  0.94540000  1.0
  H  H74  1  0.17410000  0.66410000  0.78060000  1.0
  H  H75  1  0.10400000  0.55180000  0.81010000  1.0
  H  H76  1  0.11890000  0.39240000  0.88830000  1.0
  H  H77  1  0.41630000  0.37690000  0.80250000  1.0
  H  H78  1  0.44650000  0.42880000  0.93870000  1.0
  H  H79  1  0.38430000  0.48990000  0.03950000  1.0
  H  H80  1  0.35450000  0.24500000  0.01580000  1.0
  H  H81  1  0.44150000  0.18300000  0.99510000  1.0
  H  H82  1  0.39840000  0.90620000  0.10360000  1.0
  H  H83  1  0.31410000  0.97550000  0.12540000  1.0
  H  H84  1  0.49170000  0.92100000  0.05460000  1.0
  H  H85  1  0.32590000  0.83590000  0.28060000  1.0
  H  H86  1  0.39600000  0.94820000  0.31010000  1.0
  H  H87  1  0.38110000  0.10760000  0.38830000  1.0
  H  H88  1  0.08370000  0.12310000  0.30250000  1.0
  H  H89  1  0.05350000  0.07120000  0.43870000  1.0
  H  H90  1  0.11570000  0.01010000  0.53950000  1.0
  H  H91  1  0.14550000  0.25500000  0.51580000  1.0
  H  H92  1  0.05850000  0.31700000  0.49510000  1.0
  H  H93  1  0.10160000  0.59380000  0.60360000  1.0
  H  H94  1  0.18590000  0.52450000  0.62540000  1.0
  H  H95  1  0.00830000  0.57900000  0.55460000  1.0
  C  C96  1  0.18070000  0.40170000  0.30680000  1.0
  C  C97  1  0.13910000  0.46700000  0.32660000  1.0
  C  C98  1  0.14790000  0.56410000  0.37210000  1.0
  C  C99  1  0.20030000  0.59220000  0.39170000  1.0
  C  C100  1  0.24280000  0.52480000  0.36650000  1.0
  C  C101  1  0.30130000  0.54520000  0.38230000  1.0
  C  C102  1  0.33790000  0.58380000  0.32050000  1.0
  C  C103  1  0.39190000  0.59540000  0.34270000  1.0
  C  C104  1  0.40990000  0.56590000  0.42440000  1.0
  C  C105  1  0.37290000  0.52890000  0.48410000  1.0
  C  C106  1  0.21280000  0.69140000  0.44490000  1.0
  C  C107  1  0.31700000  0.61720000  0.23080000  1.0
  C  C108  1  0.36340000  0.82390000  0.53420000  1.0
  C  C109  1  0.41570000  0.86110000  0.52080000  1.0
  C  C110  1  0.42930000  0.96440000  0.54600000  1.0
  C  C111  1  0.39060000  0.02450000  0.58530000  1.0
  C  C112  1  0.34000000  0.98210000  0.59780000  1.0
  C  C113  1  0.48340000  0.01600000  0.52520000  1.0
  C  C114  1  0.31930000  0.09830000  0.80680000  1.0
  C  C115  1  0.36090000  0.03300000  0.82660000  1.0
  C  C116  1  0.35210000  0.93590000  0.87210000  1.0
  C  C117  1  0.29970000  0.90780000  0.89170000  1.0
  C  C118  1  0.25720000  0.97520000  0.86650000  1.0
  C  C119  1  0.19870000  0.95480000  0.88230000  1.0
  C  C120  1  0.16210000  0.91620000  0.82050000  1.0
  C  C121  1  0.10810000  0.90460000  0.84270000  1.0
  C  C122  1  0.09010000  0.93410000  0.92440000  1.0
  C  C123  1  0.12710000  0.97110000  0.98410000  1.0
  C  C124  1  0.28720000  0.80860000  0.94490000  1.0
  C  C125  1  0.18300000  0.88280000  0.73080000  1.0
  C  C126  1  0.13660000  0.67610000  0.03420000  1.0
  C  C127  1  0.08430000  0.63890000  0.02080000  1.0
  C  C128  1  0.07070000  0.53560000  0.04600000  1.0
  C  C129  1  0.10940000  0.47550000  0.08530000  1.0
  C  C130  1  0.16000000  0.51790000  0.09780000  1.0
  C  C131  1  0.01660000  0.48400000  0.02520000  1.0
  C  C132  1  0.81930000  0.40170000  0.19320000  1.0
  C  C133  1  0.86090000  0.46700000  0.17340000  1.0
  C  C134  1  0.85210000  0.56410000  0.12790000  1.0
  C  C135  1  0.79970000  0.59220000  0.10830000  1.0
  C  C136  1  0.75720000  0.52480000  0.13350000  1.0
  C  C137  1  0.69870000  0.54520000  0.11770000  1.0
  C  C138  1  0.66210000  0.58380000  0.17950000  1.0
  C  C139  1  0.60810000  0.59540000  0.15730000  1.0
  C  C140  1  0.59010000  0.56590000  0.07560000  1.0
  C  C141  1  0.62710000  0.52890000  0.01590000  1.0
  C  C142  1  0.78720000  0.69140000  0.05510000  1.0
  C  C143  1  0.68300000  0.61720000  0.26920000  1.0
  C  C144  1  0.63660000  0.82390000  0.96580000  1.0
  C  C145  1  0.58430000  0.86110000  0.97920000  1.0
  C  C146  1  0.57070000  0.96440000  0.95400000  1.0
  C  C147  1  0.60940000  0.02450000  0.91470000  1.0
  C  C148  1  0.66000000  0.98210000  0.90220000  1.0
  C  C149  1  0.51660000  0.01600000  0.97480000  1.0
  C  C150  1  0.68070000  0.09830000  0.69320000  1.0
  C  C151  1  0.63910000  0.03300000  0.67340000  1.0
  C  C152  1  0.64790000  0.93590000  0.62790000  1.0
  C  C153  1  0.70030000  0.90780000  0.60830000  1.0
  C  C154  1  0.74280000  0.97520000  0.63350000  1.0
  C  C155  1  0.80130000  0.95480000  0.61770000  1.0
  C  C156  1  0.83790000  0.91620000  0.67950000  1.0
  C  C157  1  0.89190000  0.90460000  0.65730000  1.0
  C  C158  1  0.90990000  0.93410000  0.57560000  1.0
  C  C159  1  0.87290000  0.97110000  0.51590000  1.0
  C  C160  1  0.71280000  0.80860000  0.55510000  1.0
  C  C161  1  0.81700000  0.88280000  0.76920000  1.0
  C  C162  1  0.86340000  0.67610000  0.46580000  1.0
  C  C163  1  0.91570000  0.63890000  0.47920000  1.0
  C  C164  1  0.92930000  0.53560000  0.45400000  1.0
  C  C165  1  0.89060000  0.47550000  0.41470000  1.0
  C  C166  1  0.84000000  0.51790000  0.40220000  1.0
  C  C167  1  0.98340000  0.48400000  0.47480000  1.0
  C  C168  1  0.81930000  0.59830000  0.69320000  1.0
  C  C169  1  0.86090000  0.53300000  0.67340000  1.0
  C  C170  1  0.85210000  0.43590000  0.62790000  1.0
  C  C171  1  0.79970000  0.40780000  0.60830000  1.0
  C  C172  1  0.75720000  0.47520000  0.63350000  1.0
  C  C173  1  0.69870000  0.45480000  0.61770000  1.0
  C  C174  1  0.66210000  0.41620000  0.67950000  1.0
  C  C175  1  0.60810000  0.40460000  0.65730000  1.0
  C  C176  1  0.59010000  0.43410000  0.57560000  1.0
  C  C177  1  0.62710000  0.47110000  0.51590000  1.0
  C  C178  1  0.78720000  0.30860000  0.55510000  1.0
  C  C179  1  0.68300000  0.38280000  0.76920000  1.0
  C  C180  1  0.63660000  0.17610000  0.46580000  1.0
  C  C181  1  0.58430000  0.13890000  0.47920000  1.0
  C  C182  1  0.57070000  0.03560000  0.45400000  1.0
  C  C183  1  0.60940000  0.97550000  0.41470000  1.0
  C  C184  1  0.66000000  0.01790000  0.40220000  1.0
  C  C185  1  0.51660000  0.98400000  0.47480000  1.0
  C  C186  1  0.68070000  0.90170000  0.19320000  1.0
  C  C187  1  0.63910000  0.96700000  0.17340000  1.0
  C  C188  1  0.64790000  0.06410000  0.12790000  1.0
  C  C189  1  0.70030000  0.09220000  0.10830000  1.0
  C  C190  1  0.74280000  0.02480000  0.13350000  1.0
  C  C191  1  0.80130000  0.04520000  0.11770000  1.0
  C  C192  1  0.83790000  0.08380000  0.17950000  1.0
  C  C193  1  0.89190000  0.09540000  0.15730000  1.0
  C  C194  1  0.90990000  0.06590000  0.07560000  1.0
  C  C195  1  0.87290000  0.02890000  0.01590000  1.0
  C  C196  1  0.71280000  0.19140000  0.05510000  1.0
  C  C197  1  0.81700000  0.11720000  0.26920000  1.0
  C  C198  1  0.86340000  0.32390000  0.96580000  1.0
  C  C199  1  0.91570000  0.36110000  0.97920000  1.0
  C  C200  1  0.92930000  0.46440000  0.95400000  1.0
  C  C201  1  0.89060000  0.52450000  0.91470000  1.0
  C  C202  1  0.84000000  0.48210000  0.90220000  1.0
  C  C203  1  0.98340000  0.51600000  0.97480000  1.0
  C  C204  1  0.18070000  0.59830000  0.80680000  1.0
  C  C205  1  0.13910000  0.53300000  0.82660000  1.0
  C  C206  1  0.14790000  0.43590000  0.87210000  1.0
  C  C207  1  0.20030000  0.40780000  0.89170000  1.0
  C  C208  1  0.24280000  0.47520000  0.86650000  1.0
  C  C209  1  0.30130000  0.45480000  0.88230000  1.0
  C  C210  1  0.33790000  0.41620000  0.82050000  1.0
  C  C211  1  0.39190000  0.40460000  0.84270000  1.0
  C  C212  1  0.40990000  0.43410000  0.92440000  1.0
  C  C213  1  0.37290000  0.47110000  0.98410000  1.0
  C  C214  1  0.21280000  0.30860000  0.94490000  1.0
  C  C215  1  0.31700000  0.38280000  0.73080000  1.0
  C  C216  1  0.36340000  0.17610000  0.03420000  1.0
  C  C217  1  0.41570000  0.13890000  0.02080000  1.0
  C  C218  1  0.42930000  0.03560000  0.04600000  1.0
  C  C219  1  0.39060000  0.97550000  0.08530000  1.0
  C  C220  1  0.34000000  0.01790000  0.09780000  1.0
  C  C221  1  0.48340000  0.98400000  0.02520000  1.0
  C  C222  1  0.31930000  0.90170000  0.30680000  1.0
  C  C223  1  0.36090000  0.96700000  0.32660000  1.0
  C  C224  1  0.35210000  0.06410000  0.37210000  1.0
  C  C225  1  0.29970000  0.09220000  0.39170000  1.0
  C  C226  1  0.25720000  0.02480000  0.36650000  1.0
  C  C227  1  0.19870000  0.04520000  0.38230000  1.0
  C  C228  1  0.16210000  0.08380000  0.32050000  1.0
  C  C229  1  0.10810000  0.09540000  0.34270000  1.0
  C  C230  1  0.09010000  0.06590000  0.42440000  1.0
  C  C231  1  0.12710000  0.02890000  0.48410000  1.0
  C  C232  1  0.28720000  0.19140000  0.44490000  1.0
  C  C233  1  0.18300000  0.11720000  0.23080000  1.0
  C  C234  1  0.13660000  0.32390000  0.53420000  1.0
  C  C235  1  0.08430000  0.36110000  0.52080000  1.0
  C  C236  1  0.07070000  0.46440000  0.54600000  1.0
  C  C237  1  0.10940000  0.52450000  0.58530000  1.0
  C  C238  1  0.16000000  0.48210000  0.59780000  1.0
  C  C239  1  0.01660000  0.51600000  0.52520000  1.0
  N  N240  1  0.23210000  0.43140000  0.32500000  1.0
  N  N241  1  0.32080000  0.51990000  0.46250000  1.0
  N  N242  1  0.32532000  0.88350000  0.57270000  1.0
  N  N243  1  0.26790000  0.06860000  0.82500000  1.0
  N  N244  1  0.17920000  0.98010000  0.96250000  1.0
  N  N245  1  0.17468000  0.61650000  0.07270000  1.0
  N  N246  1  0.76790000  0.43140000  0.17500000  1.0
  N  N247  1  0.67920000  0.51990000  0.03750000  1.0
  N  N248  1  0.67468000  0.88350000  0.92730000  1.0
  N  N249  1  0.73210000  0.06860000  0.67500000  1.0
  N  N250  1  0.82080000  0.98010000  0.53750000  1.0
  N  N251  1  0.82532000  0.61650000  0.42730000  1.0
  N  N252  1  0.76790000  0.56860000  0.67500000  1.0
  N  N253  1  0.67920000  0.48010000  0.53750000  1.0
  N  N254  1  0.67468000  0.11650000  0.42730000  1.0
  N  N255  1  0.73210000  0.93140000  0.17500000  1.0
  N  N256  1  0.82080000  0.01990000  0.03750000  1.0
  N  N257  1  0.82532000  0.38350000  0.92730000  1.0
  N  N258  1  0.23210000  0.56860000  0.82500000  1.0
  N  N259  1  0.32080000  0.48010000  0.96250000  1.0
  N  N260  1  0.32532000  0.11650000  0.07270000  1.0
  N  N261  1  0.26790000  0.93140000  0.32500000  1.0
  N  N262  1  0.17920000  0.01990000  0.46250000  1.0
  N  N263  1  0.17468000  0.38350000  0.57270000  1.0
  O  O264  1  0.17381000  0.73510000  0.48380000  1.0
  O  O265  1  0.26063000  0.72050000  0.45320000  1.0
  O  O266  1  0.34820000  0.66640000  0.18210000  1.0
  O  O267  1  0.27020000  0.59790000  0.21130000  1.0
  O  O268  1  0.27370000  0.36810000  0.30480000  1.0
  O  O269  1  0.28452000  0.49280000  0.52420000  1.0
  O  O270  1  0.32619000  0.76490000  0.98380000  1.0
  O  O271  1  0.23937000  0.77950000  0.95320000  1.0
  O  O272  1  0.15180000  0.83360000  0.68210000  1.0
  O  O273  1  0.22980000  0.90210000  0.71130000  1.0
  O  O274  1  0.22630000  0.13190000  0.80480000  1.0
  O  O275  1  0.21548000  0.00720000  0.02420000  1.0
  O  O276  1  0.82619000  0.73510000  0.01620000  1.0
  O  O277  1  0.73937000  0.72050000  0.04680000  1.0
  O  O278  1  0.65180000  0.66640000  0.31790000  1.0
  O  O279  1  0.72980000  0.59790000  0.28870000  1.0
  O  O280  1  0.72630000  0.36810000  0.19520000  1.0
  O  O281  1  0.71548000  0.49280000  0.97580000  1.0
  O  O282  1  0.67381000  0.76490000  0.51620000  1.0
  O  O283  1  0.76063000  0.77950000  0.54680000  1.0
  O  O284  1  0.84820000  0.83360000  0.81790000  1.0
  O  O285  1  0.77020000  0.90210000  0.78870000  1.0
  O  O286  1  0.77370000  0.13190000  0.69520000  1.0
  O  O287  1  0.78452000  0.00720000  0.47580000  1.0
  O  O288  1  0.82619000  0.26490000  0.51620000  1.0
  O  O289  1  0.73937000  0.27950000  0.54680000  1.0
  O  O290  1  0.65180000  0.33360000  0.81790000  1.0
  O  O291  1  0.72980000  0.40210000  0.78870000  1.0
  O  O292  1  0.72630000  0.63190000  0.69520000  1.0
  O  O293  1  0.71548000  0.50720000  0.47580000  1.0
  O  O294  1  0.67381000  0.23510000  0.01620000  1.0
  O  O295  1  0.76063000  0.22050000  0.04680000  1.0
  O  O296  1  0.84820000  0.16640000  0.31790000  1.0
  O  O297  1  0.77020000  0.09790000  0.28870000  1.0
  O  O298  1  0.77370000  0.86810000  0.19520000  1.0
  O  O299  1  0.78452000  0.99280000  0.97580000  1.0
  O  O300  1  0.17381000  0.26490000  0.98380000  1.0
  O  O301  1  0.26063000  0.27950000  0.95320000  1.0
  O  O302  1  0.34820000  0.33360000  0.68210000  1.0
  O  O303  1  0.27020000  0.40210000  0.71130000  1.0
  O  O304  1  0.27370000  0.63190000  0.80480000  1.0
  O  O305  1  0.28452000  0.50720000  0.02420000  1.0
  O  O306  1  0.32619000  0.23510000  0.48380000  1.0
  O  O307  1  0.23937000  0.22050000  0.45320000  1.0
  O  O308  1  0.15180000  0.16640000  0.18210000  1.0
  O  O309  1  0.22980000  0.09790000  0.21130000  1.0
  O  O310  1  0.22630000  0.86810000  0.30480000  1.0
  O  O311  1  0.21548000  0.99280000  0.52420000  1.0
