# generated using pymatgen
data_Sm2Cu7H28C42Br6(NO2)7
_symmetry_space_group_name_H-M   'P 1'
_cell_length_a   13.93200000
_cell_length_b   18.15600000
_cell_length_c   23.80100000
_cell_angle_alpha   90.00000000
_cell_angle_beta   90.00000000
_cell_angle_gamma   99.42000000
_symmetry_Int_Tables_number   1
_chemical_formula_structural   Sm2Cu7H28C42Br6(NO2)7
_chemical_formula_sum   'Sm8 Cu28 H112 C168 Br24 N28 O56'
_cell_volume   5939.26327301
_cell_formula_units_Z   4
loop_
 _symmetry_equiv_pos_site_id
 _symmetry_equiv_pos_as_xyz
  1  'x, y, z'
loop_
 _atom_site_type_symbol
 _atom_site_label
 _atom_site_symmetry_multiplicity
 _atom_site_fract_x
 _atom_site_fract_y
 _atom_site_fract_z
 _atom_site_occupancy
  Sm  Sm0  1  0.14260000  0.98057000  0.40658000  1.0
  Sm  Sm1  1  0.36393000  0.01490000  0.60239000  1.0
  Sm  Sm2  1  0.35740000  0.01943000  0.90658000  1.0
  Sm  Sm3  1  0.13607000  0.98510000  0.10239000  1.0
  Sm  Sm4  1  0.85740000  0.01943000  0.59342000  1.0
  Sm  Sm5  1  0.63607000  0.98510000  0.39761000  1.0
  Sm  Sm6  1  0.64260000  0.98057000  0.09342000  1.0
  Sm  Sm7  1  0.86393000  0.01490000  0.89761000  1.0
  Cu  Cu8  1  0.06540000  0.45653000  0.48823000  1.0
  Cu  Cu9  1  0.16325000  0.55420000  0.57975000  1.0
  Cu  Cu10  1  0.12407000  0.44417000  0.68894000  1.0
  Cu  Cu11  1  0.14120000  0.57069000  0.74887000  1.0
  Cu  Cu12  1  0.37534000  0.55354000  0.31197000  1.0
  Cu  Cu13  1  0.33838000  0.44043000  0.42077000  1.0
  Cu  Cu14  1  0.43050000  0.54032000  0.51049000  1.0
  Cu  Cu15  1  0.43460000  0.54347000  0.98823000  1.0
  Cu  Cu16  1  0.33675000  0.44580000  0.07975000  1.0
  Cu  Cu17  1  0.37593000  0.55583000  0.18894000  1.0
  Cu  Cu18  1  0.35880000  0.42931000  0.24887000  1.0
  Cu  Cu19  1  0.12466000  0.44646000  0.81197000  1.0
  Cu  Cu20  1  0.16162000  0.55957000  0.92077000  1.0
  Cu  Cu21  1  0.06950000  0.45968000  0.01049000  1.0
  Cu  Cu22  1  0.93460000  0.54347000  0.51177000  1.0
  Cu  Cu23  1  0.83675000  0.44580000  0.42025000  1.0
  Cu  Cu24  1  0.87593000  0.55583000  0.31106000  1.0
  Cu  Cu25  1  0.85880000  0.42931000  0.25113000  1.0
  Cu  Cu26  1  0.62466000  0.44646000  0.68803000  1.0
  Cu  Cu27  1  0.66162000  0.55957000  0.57923000  1.0
  Cu  Cu28  1  0.56950000  0.45968000  0.48951000  1.0
  Cu  Cu29  1  0.56540000  0.45653000  0.01177000  1.0
  Cu  Cu30  1  0.66325000  0.55420000  0.92025000  1.0
  Cu  Cu31  1  0.62407000  0.44417000  0.81106000  1.0
  Cu  Cu32  1  0.64120000  0.57069000  0.75113000  1.0
  Cu  Cu33  1  0.87534000  0.55354000  0.18803000  1.0
  Cu  Cu34  1  0.83838000  0.44043000  0.07923000  1.0
  Cu  Cu35  1  0.93050000  0.54032000  0.98951000  1.0
  H  H36  1  0.09870000  0.32200000  0.54780000  1.0
  H  H37  1  0.10810000  0.19780000  0.53270000  1.0
  H  H38  1  0.04990000  0.22980000  0.37020000  1.0
  H  H39  1  0.04290000  0.35420000  0.39250000  1.0
  H  H40  1  0.20940000  0.69830000  0.64040000  1.0
  H  H41  1  0.21340000  0.82510000  0.62660000  1.0
  H  H42  1  0.14470000  0.77920000  0.46460000  1.0
  H  H43  1  0.14660000  0.65480000  0.48460000  1.0
  H  H44  1  0.30720000  0.39510000  0.65280000  1.0
  H  H45  1  0.36640000  0.28610000  0.63480000  1.0
  H  H46  1  0.10570000  0.17100000  0.66950000  1.0
  H  H47  1  0.05070000  0.28090000  0.68660000  1.0
  H  H48  1  0.17900000  0.73250000  0.74790000  1.0
  H  H49  1  0.09460000  0.83350000  0.75280000  1.0
  H  H50  1  0.84560000  0.68810000  0.75140000  1.0
  H  H51  1  0.94350000  0.59460000  0.74900000  1.0
  H  H52  1  0.45020000  0.71740000  0.32510000  1.0
  H  H53  1  0.39460000  0.82330000  0.34240000  1.0
  H  H54  1  0.12480000  0.70820000  0.35990000  1.0
  H  H55  1  0.18890000  0.60140000  0.34050000  1.0
  H  H56  1  0.35920000  0.34340000  0.51760000  1.0
  H  H57  1  0.36160000  0.21890000  0.53710000  1.0
  H  H58  1  0.29320000  0.17200000  0.37610000  1.0
  H  H59  1  0.29710000  0.29620000  0.36060000  1.0
  H  H60  1  0.45190000  0.63980000  0.60940000  1.0
  H  H61  1  0.45410000  0.76420000  0.63190000  1.0
  H  H62  1  0.39700000  0.80250000  0.47060000  1.0
  H  H63  1  0.39850000  0.67850000  0.45270000  1.0
  H  H64  1  0.40130000  0.67800000  0.04780000  1.0
  H  H65  1  0.39190000  0.80220000  0.03270000  1.0
  H  H66  1  0.45010000  0.77020000  0.87020000  1.0
  H  H67  1  0.45710000  0.64580000  0.89250000  1.0
  H  H68  1  0.29060000  0.30170000  0.14040000  1.0
  H  H69  1  0.28660000  0.17490000  0.12660000  1.0
  H  H70  1  0.35530000  0.22080000  0.96460000  1.0
  H  H71  1  0.35340000  0.34520000  0.98460000  1.0
  H  H72  1  0.19280000  0.60490000  0.15280000  1.0
  H  H73  1  0.13360000  0.71390000  0.13480000  1.0
  H  H74  1  0.39430000  0.82900000  0.16950000  1.0
  H  H75  1  0.44930000  0.71910000  0.18660000  1.0
  H  H76  1  0.32100000  0.26750000  0.24790000  1.0
  H  H77  1  0.40540000  0.16650000  0.25280000  1.0
  H  H78  1  0.65440000  0.31190000  0.25140000  1.0
  H  H79  1  0.55650000  0.40540000  0.24900000  1.0
  H  H80  1  0.04980000  0.28260000  0.82510000  1.0
  H  H81  1  0.10540000  0.17670000  0.84240000  1.0
  H  H82  1  0.37520000  0.29180000  0.85990000  1.0
  H  H83  1  0.31110000  0.39860000  0.84050000  1.0
  H  H84  1  0.14080000  0.65660000  0.01760000  1.0
  H  H85  1  0.13840000  0.78110000  0.03710000  1.0
  H  H86  1  0.20680000  0.82800000  0.87610000  1.0
  H  H87  1  0.20290000  0.70380000  0.86060000  1.0
  H  H88  1  0.04810000  0.36020000  0.10940000  1.0
  H  H89  1  0.04590000  0.23580000  0.13190000  1.0
  H  H90  1  0.10300000  0.19750000  0.97060000  1.0
  H  H91  1  0.10150000  0.32150000  0.95270000  1.0
  H  H92  1  0.90130000  0.67800000  0.45220000  1.0
  H  H93  1  0.89190000  0.80220000  0.46730000  1.0
  H  H94  1  0.95010000  0.77020000  0.62980000  1.0
  H  H95  1  0.95710000  0.64580000  0.60750000  1.0
  H  H96  1  0.79060000  0.30170000  0.35960000  1.0
  H  H97  1  0.78660000  0.17490000  0.37340000  1.0
  H  H98  1  0.85530000  0.22080000  0.53540000  1.0
  H  H99  1  0.85340000  0.34520000  0.51540000  1.0
  H  H100  1  0.69280000  0.60490000  0.34720000  1.0
  H  H101  1  0.63360000  0.71390000  0.36520000  1.0
  H  H102  1  0.89430000  0.82900000  0.33050000  1.0
  H  H103  1  0.94930000  0.71910000  0.31340000  1.0
  H  H104  1  0.82100000  0.26750000  0.25210000  1.0
  H  H105  1  0.90540000  0.16650000  0.24720000  1.0
  H  H106  1  0.15440000  0.31190000  0.24860000  1.0
  H  H107  1  0.05650000  0.40540000  0.25100000  1.0
  H  H108  1  0.54980000  0.28260000  0.67490000  1.0
  H  H109  1  0.60540000  0.17670000  0.65760000  1.0
  H  H110  1  0.87520000  0.29180000  0.64010000  1.0
  H  H111  1  0.81110000  0.39860000  0.65950000  1.0
  H  H112  1  0.64080000  0.65660000  0.48240000  1.0
  H  H113  1  0.63840000  0.78110000  0.46290000  1.0
  H  H114  1  0.70680000  0.82800000  0.62390000  1.0
  H  H115  1  0.70290000  0.70380000  0.63940000  1.0
  H  H116  1  0.54810000  0.36020000  0.39060000  1.0
  H  H117  1  0.54590000  0.23580000  0.36810000  1.0
  H  H118  1  0.60300000  0.19750000  0.52940000  1.0
  H  H119  1  0.60150000  0.32150000  0.54730000  1.0
  H  H120  1  0.59870000  0.32200000  0.95220000  1.0
  H  H121  1  0.60810000  0.19780000  0.96730000  1.0
  H  H122  1  0.54990000  0.22980000  0.12980000  1.0
  H  H123  1  0.54290000  0.35420000  0.10750000  1.0
  H  H124  1  0.70940000  0.69830000  0.85960000  1.0
  H  H125  1  0.71340000  0.82510000  0.87340000  1.0
  H  H126  1  0.64470000  0.77920000  0.03540000  1.0
  H  H127  1  0.64660000  0.65480000  0.01540000  1.0
  H  H128  1  0.80720000  0.39510000  0.84720000  1.0
  H  H129  1  0.86640000  0.28610000  0.86520000  1.0
  H  H130  1  0.60570000  0.17100000  0.83050000  1.0
  H  H131  1  0.55070000  0.28090000  0.81340000  1.0
  H  H132  1  0.67900000  0.73250000  0.75210000  1.0
  H  H133  1  0.59460000  0.83350000  0.74720000  1.0
  H  H134  1  0.34560000  0.68810000  0.74860000  1.0
  H  H135  1  0.44350000  0.59460000  0.75100000  1.0
  H  H136  1  0.95020000  0.71740000  0.17490000  1.0
  H  H137  1  0.89460000  0.82330000  0.15760000  1.0
  H  H138  1  0.62480000  0.70820000  0.14010000  1.0
  H  H139  1  0.68890000  0.60140000  0.15950000  1.0
  H  H140  1  0.85920000  0.34340000  0.98240000  1.0
  H  H141  1  0.86160000  0.21890000  0.96290000  1.0
  H  H142  1  0.79320000  0.17200000  0.12390000  1.0
  H  H143  1  0.79710000  0.29620000  0.13940000  1.0
  H  H144  1  0.95190000  0.63980000  0.89060000  1.0
  H  H145  1  0.95410000  0.76420000  0.86810000  1.0
  H  H146  1  0.89700000  0.80250000  0.02940000  1.0
  H  H147  1  0.89850000  0.67850000  0.04730000  1.0
  C  C148  1  0.08850000  0.30310000  0.51150000  1.0
  C  C149  1  0.09360000  0.22780000  0.50320000  1.0
  C  C150  1  0.07680000  0.20020000  0.45140000  1.0
  C  C151  1  0.05900000  0.24720000  0.40680000  1.0
  C  C152  1  0.05590000  0.32210000  0.42090000  1.0
  C  C153  1  0.08560000  0.12010000  0.43620000  1.0
  C  C154  1  0.19560000  0.71450000  0.60470000  1.0
  C  C155  1  0.19760000  0.79150000  0.59720000  1.0
  C  C156  1  0.17480000  0.81550000  0.54370000  1.0
  C  C157  1  0.15710000  0.76440000  0.50090000  1.0
  C  C158  1  0.15850000  0.68920000  0.51380000  1.0
  C  C159  1  0.17670000  0.89860000  0.53330000  1.0
  C  C160  1  0.26570000  0.34970000  0.65630000  1.0
  C  C161  1  0.30190000  0.28380000  0.64570000  1.0
  C  C162  1  0.24460000  0.21720000  0.65120000  1.0
  C  C163  1  0.14790000  0.21610000  0.66620000  1.0
  C  C164  1  0.11530000  0.28240000  0.67610000  1.0
  C  C165  1  0.28460000  0.14670000  0.63810000  1.0
  C  C166  1  0.11140000  0.72430000  0.74920000  1.0
  C  C167  1  0.06040000  0.78510000  0.75170000  1.0
  C  C168  1  0.96340000  0.77380000  0.75260000  1.0
  C  C169  1  0.91320000  0.69970000  0.75120000  1.0
  C  C170  1  0.97450000  0.64400000  0.74950000  1.0
  C  C171  1  0.90280000  0.83740000  0.75650000  1.0
  C  C172  1  0.38400000  0.71540000  0.33180000  1.0
  C  C173  1  0.35100000  0.77860000  0.34200000  1.0
  C  C174  1  0.25310000  0.77980000  0.35220000  1.0
  C  C175  1  0.19080000  0.71100000  0.35240000  1.0
  C  C176  1  0.23000000  0.64730000  0.34100000  1.0
  C  C177  1  0.21510000  0.85110000  0.36560000  1.0
  C  C178  1  0.34610000  0.30840000  0.48890000  1.0
  C  C179  1  0.34650000  0.23340000  0.50110000  1.0
  C  C180  1  0.32390000  0.17980000  0.45840000  1.0
  C  C181  1  0.30660000  0.20550000  0.40580000  1.0
  C  C182  1  0.30890000  0.28000000  0.39660000  1.0
  C  C183  1  0.31890000  0.09730000  0.47110000  1.0
  C  C184  1  0.44230000  0.67290000  0.58090000  1.0
  C  C185  1  0.44230000  0.74790000  0.59510000  1.0
  C  C186  1  0.42430000  0.79750000  0.55340000  1.0
  C  C187  1  0.40870000  0.77080000  0.49960000  1.0
  C  C188  1  0.41070000  0.69600000  0.48910000  1.0
  C  C189  1  0.41550000  0.87610000  0.56970000  1.0
  C  C190  1  0.41150000  0.69690000  0.01150000  1.0
  C  C191  1  0.40640000  0.77220000  0.00320000  1.0
  C  C192  1  0.42320000  0.79980000  0.95140000  1.0
  C  C193  1  0.44100000  0.75280000  0.90680000  1.0
  C  C194  1  0.44410000  0.67790000  0.92090000  1.0
  C  C195  1  0.41440000  0.87990000  0.93620000  1.0
  C  C196  1  0.30440000  0.28550000  0.10470000  1.0
  C  C197  1  0.30240000  0.20850000  0.09720000  1.0
  C  C198  1  0.32520000  0.18450000  0.04370000  1.0
  C  C199  1  0.34290000  0.23560000  0.00090000  1.0
  C  C200  1  0.34150000  0.31080000  0.01380000  1.0
  C  C201  1  0.32330000  0.10140000  0.03330000  1.0
  C  C202  1  0.23430000  0.65030000  0.15630000  1.0
  C  C203  1  0.19810000  0.71620000  0.14570000  1.0
  C  C204  1  0.25540000  0.78280000  0.15120000  1.0
  C  C205  1  0.35210000  0.78390000  0.16620000  1.0
  C  C206  1  0.38470000  0.71760000  0.17610000  1.0
  C  C207  1  0.21540000  0.85330000  0.13810000  1.0
  C  C208  1  0.38860000  0.27570000  0.24920000  1.0
  C  C209  1  0.43960000  0.21490000  0.25170000  1.0
  C  C210  1  0.53660000  0.22620000  0.25260000  1.0
  C  C211  1  0.58680000  0.30030000  0.25120000  1.0
  C  C212  1  0.52550000  0.35600000  0.24950000  1.0
  C  C213  1  0.59720000  0.16260000  0.25650000  1.0
  C  C214  1  0.11600000  0.28460000  0.83180000  1.0
  C  C215  1  0.14900000  0.22140000  0.84200000  1.0
  C  C216  1  0.24690000  0.22020000  0.85220000  1.0
  C  C217  1  0.30920000  0.28900000  0.85240000  1.0
  C  C218  1  0.27000000  0.35270000  0.84100000  1.0
  C  C219  1  0.28490000  0.14890000  0.86560000  1.0
  C  C220  1  0.15390000  0.69160000  0.98890000  1.0
  C  C221  1  0.15350000  0.76660000  0.00110000  1.0
  C  C222  1  0.17610000  0.82020000  0.95840000  1.0
  C  C223  1  0.19340000  0.79450000  0.90580000  1.0
  C  C224  1  0.19110000  0.72000000  0.89660000  1.0
  C  C225  1  0.18110000  0.90270000  0.97110000  1.0
  C  C226  1  0.05770000  0.32710000  0.08090000  1.0
  C  C227  1  0.05770000  0.25210000  0.09510000  1.0
  C  C228  1  0.07570000  0.20250000  0.05340000  1.0
  C  C229  1  0.09130000  0.22920000  0.99960000  1.0
  C  C230  1  0.08930000  0.30400000  0.98910000  1.0
  C  C231  1  0.08450000  0.12390000  0.06970000  1.0
  C  C232  1  0.91150000  0.69690000  0.48850000  1.0
  C  C233  1  0.90640000  0.77220000  0.49680000  1.0
  C  C234  1  0.92320000  0.79980000  0.54860000  1.0
  C  C235  1  0.94100000  0.75280000  0.59320000  1.0
  C  C236  1  0.94410000  0.67790000  0.57910000  1.0
  C  C237  1  0.91440000  0.87990000  0.56380000  1.0
  C  C238  1  0.80440000  0.28550000  0.39530000  1.0
  C  C239  1  0.80240000  0.20850000  0.40280000  1.0
  C  C240  1  0.82520000  0.18450000  0.45630000  1.0
  C  C241  1  0.84290000  0.23560000  0.49910000  1.0
  C  C242  1  0.84150000  0.31080000  0.48620000  1.0
  C  C243  1  0.82330000  0.10140000  0.46670000  1.0
  C  C244  1  0.73430000  0.65030000  0.34370000  1.0
  C  C245  1  0.69810000  0.71620000  0.35430000  1.0
  C  C246  1  0.75540000  0.78280000  0.34880000  1.0
  C  C247  1  0.85210000  0.78390000  0.33380000  1.0
  C  C248  1  0.88470000  0.71760000  0.32390000  1.0
  C  C249  1  0.71540000  0.85330000  0.36190000  1.0
  C  C250  1  0.88860000  0.27570000  0.25080000  1.0
  C  C251  1  0.93960000  0.21490000  0.24830000  1.0
  C  C252  1  0.03660000  0.22620000  0.24740000  1.0
  C  C253  1  0.08680000  0.30030000  0.24880000  1.0
  C  C254  1  0.02550000  0.35600000  0.25050000  1.0
  C  C255  1  0.09720000  0.16260000  0.24350000  1.0
  C  C256  1  0.61600000  0.28460000  0.66820000  1.0
  C  C257  1  0.64900000  0.22140000  0.65800000  1.0
  C  C258  1  0.74690000  0.22020000  0.64780000  1.0
  C  C259  1  0.80920000  0.28900000  0.64760000  1.0
  C  C260  1  0.77000000  0.35270000  0.65900000  1.0
  C  C261  1  0.78490000  0.14890000  0.63440000  1.0
  C  C262  1  0.65390000  0.69160000  0.51110000  1.0
  C  C263  1  0.65350000  0.76660000  0.49890000  1.0
  C  C264  1  0.67610000  0.82020000  0.54160000  1.0
  C  C265  1  0.69340000  0.79450000  0.59420000  1.0
  C  C266  1  0.69110000  0.72000000  0.60340000  1.0
  C  C267  1  0.68110000  0.90270000  0.52890000  1.0
  C  C268  1  0.55770000  0.32710000  0.41910000  1.0
  C  C269  1  0.55770000  0.25210000  0.40490000  1.0
  C  C270  1  0.57570000  0.20250000  0.44660000  1.0
  C  C271  1  0.59130000  0.22920000  0.50040000  1.0
  C  C272  1  0.58930000  0.30400000  0.51090000  1.0
  C  C273  1  0.58450000  0.12390000  0.43030000  1.0
  C  C274  1  0.58850000  0.30310000  0.98850000  1.0
  C  C275  1  0.59360000  0.22780000  0.99680000  1.0
  C  C276  1  0.57680000  0.20020000  0.04860000  1.0
  C  C277  1  0.55900000  0.24720000  0.09320000  1.0
  C  C278  1  0.55590000  0.32210000  0.07910000  1.0
  C  C279  1  0.58560000  0.12010000  0.06380000  1.0
  C  C280  1  0.69560000  0.71450000  0.89530000  1.0
  C  C281  1  0.69760000  0.79150000  0.90280000  1.0
  C  C282  1  0.67480000  0.81550000  0.95630000  1.0
  C  C283  1  0.65710000  0.76440000  0.99910000  1.0
  C  C284  1  0.65850000  0.68920000  0.98620000  1.0
  C  C285  1  0.67670000  0.89860000  0.96670000  1.0
  C  C286  1  0.76570000  0.34970000  0.84370000  1.0
  C  C287  1  0.80190000  0.28380000  0.85430000  1.0
  C  C288  1  0.74460000  0.21720000  0.84880000  1.0
  C  C289  1  0.64790000  0.21610000  0.83380000  1.0
  C  C290  1  0.61530000  0.28240000  0.82390000  1.0
  C  C291  1  0.78460000  0.14670000  0.86190000  1.0
  C  C292  1  0.61140000  0.72430000  0.75080000  1.0
  C  C293  1  0.56040000  0.78510000  0.74830000  1.0
  C  C294  1  0.46340000  0.77380000  0.74740000  1.0
  C  C295  1  0.41320000  0.69970000  0.74880000  1.0
  C  C296  1  0.47450000  0.64400000  0.75050000  1.0
  C  C297  1  0.40280000  0.83740000  0.74350000  1.0
  C  C298  1  0.88400000  0.71540000  0.16820000  1.0
  C  C299  1  0.85100000  0.77860000  0.15800000  1.0
  C  C300  1  0.75310000  0.77980000  0.14780000  1.0
  C  C301  1  0.69080000  0.71100000  0.14760000  1.0
  C  C302  1  0.73000000  0.64730000  0.15900000  1.0
  C  C303  1  0.71510000  0.85110000  0.13440000  1.0
  C  C304  1  0.84610000  0.30840000  0.01110000  1.0
  C  C305  1  0.84650000  0.23340000  0.99890000  1.0
  C  C306  1  0.82390000  0.17980000  0.04160000  1.0
  C  C307  1  0.80660000  0.20550000  0.09420000  1.0
  C  C308  1  0.80890000  0.28000000  0.10340000  1.0
  C  C309  1  0.81890000  0.09730000  0.02890000  1.0
  C  C310  1  0.94230000  0.67290000  0.91910000  1.0
  C  C311  1  0.94230000  0.74790000  0.90490000  1.0
  C  C312  1  0.92430000  0.79750000  0.94660000  1.0
  C  C313  1  0.90870000  0.77080000  0.00040000  1.0
  C  C314  1  0.91070000  0.69600000  0.01090000  1.0
  C  C315  1  0.91550000  0.87610000  0.93030000  1.0
  Br  Br316  1  0.24921000  0.49463000  0.50151000  1.0
  Br  Br317  1  0.99983000  0.47112000  0.58703000  1.0
  Br  Br318  1  0.25204000  0.54827000  0.67090000  1.0
  Br  Br319  1  0.51281000  0.55943000  0.25049000  1.0
  Br  Br320  1  0.24948000  0.44726000  0.32997000  1.0
  Br  Br321  1  0.49824000  0.52820000  0.41282000  1.0
  Br  Br322  1  0.25079000  0.50537000  0.00151000  1.0
  Br  Br323  1  0.50017000  0.52888000  0.08703000  1.0
  Br  Br324  1  0.24796000  0.45173000  0.17090000  1.0
  Br  Br325  1  0.98719000  0.44057000  0.75049000  1.0
  Br  Br326  1  0.25052000  0.55274000  0.82997000  1.0
  Br  Br327  1  0.00176000  0.47180000  0.91282000  1.0
  Br  Br328  1  0.75079000  0.50537000  0.49849000  1.0
  Br  Br329  1  0.00017000  0.52888000  0.41297000  1.0
  Br  Br330  1  0.74796000  0.45173000  0.32910000  1.0
  Br  Br331  1  0.48719000  0.44057000  0.74951000  1.0
  Br  Br332  1  0.75052000  0.55274000  0.67003000  1.0
  Br  Br333  1  0.50176000  0.47180000  0.58718000  1.0
  Br  Br334  1  0.74921000  0.49463000  0.99849000  1.0
  Br  Br335  1  0.49983000  0.47112000  0.91297000  1.0
  Br  Br336  1  0.75204000  0.54827000  0.82910000  1.0
  Br  Br337  1  0.01281000  0.55943000  0.24951000  1.0
  Br  Br338  1  0.74948000  0.44726000  0.17003000  1.0
  Br  Br339  1  0.99824000  0.52820000  0.08718000  1.0
  N  N340  1  0.07040000  0.34930000  0.47210000  1.0
  N  N341  1  0.17560000  0.66310000  0.56490000  1.0
  N  N342  1  0.17300000  0.34950000  0.67120000  1.0
  N  N343  1  0.06130000  0.65420000  0.74870000  1.0
  N  N344  1  0.32650000  0.64920000  0.33050000  1.0
  N  N345  1  0.32770000  0.33110000  0.43820000  1.0
  N  N346  1  0.42940000  0.64700000  0.52910000  1.0
  N  N347  1  0.42960000  0.65070000  0.97210000  1.0
  N  N348  1  0.32440000  0.33690000  0.06490000  1.0
  N  N349  1  0.32700000  0.65050000  0.17120000  1.0
  N  N350  1  0.43870000  0.34580000  0.24870000  1.0
  N  N351  1  0.17350000  0.35080000  0.83050000  1.0
  N  N352  1  0.17230000  0.66890000  0.93820000  1.0
  N  N353  1  0.07060000  0.35300000  0.02910000  1.0
  N  N354  1  0.92960000  0.65070000  0.52790000  1.0
  N  N355  1  0.82440000  0.33690000  0.43510000  1.0
  N  N356  1  0.82700000  0.65050000  0.32880000  1.0
  N  N357  1  0.93870000  0.34580000  0.25130000  1.0
  N  N358  1  0.67350000  0.35080000  0.66950000  1.0
  N  N359  1  0.67230000  0.66890000  0.56180000  1.0
  N  N360  1  0.57060000  0.35300000  0.47090000  1.0
  N  N361  1  0.57040000  0.34930000  0.02790000  1.0
  N  N362  1  0.67560000  0.66310000  0.93510000  1.0
  N  N363  1  0.67300000  0.34950000  0.82880000  1.0
  N  N364  1  0.56130000  0.65420000  0.75130000  1.0
  N  N365  1  0.82650000  0.64920000  0.16950000  1.0
  N  N366  1  0.82770000  0.33110000  0.06180000  1.0
  N  N367  1  0.92940000  0.64700000  0.97090000  1.0
  O  O368  1  0.09870000  0.07600000  0.47640000  1.0
  O  O369  1  0.08510000  0.09980000  0.38670000  1.0
  O  O370  1  0.13940000  0.91270000  0.48800000  1.0
  O  O371  1  0.21330000  0.94350000  0.56860000  1.0
  O  O372  1  0.37460000  0.14720000  0.64030000  1.0
  O  O373  1  0.22440000  0.08860000  0.62610000  1.0
  O  O374  1  0.94750000  0.90410000  0.74830000  1.0
  O  O375  1  0.81540000  0.82160000  0.76910000  1.0
  O  O376  1  0.27460000  0.90790000  0.38040000  1.0
  O  O377  1  0.12580000  0.85120000  0.36300000  1.0
  O  O378  1  0.35450000  0.08270000  0.51870000  1.0
  O  O379  1  0.28710000  0.05120000  0.43490000  1.0
  O  O380  1  0.42340000  0.89580000  0.61910000  1.0
  O  O381  1  0.40100000  0.92170000  0.53070000  1.0
  O  O382  1  0.40130000  0.92400000  0.97640000  1.0
  O  O383  1  0.41490000  0.90020000  0.88670000  1.0
  O  O384  1  0.36060000  0.08730000  0.98800000  1.0
  O  O385  1  0.28670000  0.05650000  0.06860000  1.0
  O  O386  1  0.12540000  0.85280000  0.14030000  1.0
  O  O387  1  0.27560000  0.91140000  0.12610000  1.0
  O  O388  1  0.55250000  0.09590000  0.24830000  1.0
  O  O389  1  0.68460000  0.17840000  0.26910000  1.0
  O  O390  1  0.22540000  0.09210000  0.88040000  1.0
  O  O391  1  0.37420000  0.14880000  0.86300000  1.0
  O  O392  1  0.14550000  0.91730000  0.01870000  1.0
  O  O393  1  0.21290000  0.94880000  0.93490000  1.0
  O  O394  1  0.07660000  0.10420000  0.11910000  1.0
  O  O395  1  0.09900000  0.07830000  0.03070000  1.0
  O  O396  1  0.90130000  0.92400000  0.52360000  1.0
  O  O397  1  0.91490000  0.90020000  0.61330000  1.0
  O  O398  1  0.86060000  0.08730000  0.51200000  1.0
  O  O399  1  0.78670000  0.05650000  0.43140000  1.0
  O  O400  1  0.62540000  0.85280000  0.35970000  1.0
  O  O401  1  0.77560000  0.91140000  0.37390000  1.0
  O  O402  1  0.05250000  0.09590000  0.25170000  1.0
  O  O403  1  0.18460000  0.17840000  0.23090000  1.0
  O  O404  1  0.72540000  0.09210000  0.61960000  1.0
  O  O405  1  0.87420000  0.14880000  0.63700000  1.0
  O  O406  1  0.64550000  0.91730000  0.48130000  1.0
  O  O407  1  0.71290000  0.94880000  0.56510000  1.0
  O  O408  1  0.57660000  0.10420000  0.38090000  1.0
  O  O409  1  0.59900000  0.07830000  0.46930000  1.0
  O  O410  1  0.59870000  0.07600000  0.02360000  1.0
  O  O411  1  0.58510000  0.09980000  0.11330000  1.0
  O  O412  1  0.63940000  0.91270000  0.01200000  1.0
  O  O413  1  0.71330000  0.94350000  0.93140000  1.0
  O  O414  1  0.87460000  0.14720000  0.85970000  1.0
  O  O415  1  0.72440000  0.08860000  0.87390000  1.0
  O  O416  1  0.44750000  0.90410000  0.75170000  1.0
  O  O417  1  0.31540000  0.82160000  0.73090000  1.0
  O  O418  1  0.77460000  0.90790000  0.11960000  1.0
  O  O419  1  0.62580000  0.85120000  0.13700000  1.0
  O  O420  1  0.85450000  0.08270000  0.98130000  1.0
  O  O421  1  0.78710000  0.05120000  0.06510000  1.0
  O  O422  1  0.92340000  0.89580000  0.88090000  1.0
  O  O423  1  0.90100000  0.92170000  0.96930000  1.0
