# generated using pymatgen
data_Ag2H3C7NO4
_symmetry_space_group_name_H-M   'P 1'
_cell_length_a   12.88900000
_cell_length_b   15.26600000
_cell_length_c   10.38900000
_cell_angle_alpha   90.00000000
_cell_angle_beta   118.06000000
_cell_angle_gamma   90.00000000
_symmetry_Int_Tables_number   1
_chemical_formula_structural   Ag2H3C7NO4
_chemical_formula_sum   'Ag16 H24 C56 N8 O32'
_cell_volume   1803.89407491
_cell_formula_units_Z   8
loop_
 _symmetry_equiv_pos_site_id
 _symmetry_equiv_pos_as_xyz
  1  'x, y, z'
loop_
 _atom_site_type_symbol
 _atom_site_label
 _atom_site_symmetry_multiplicity
 _atom_site_fract_x
 _atom_site_fract_y
 _atom_site_fract_z
 _atom_site_occupancy
  Ag  Ag0  1  0.57313000  0.68062000  0.42641000  1.0
  Ag  Ag1  1  0.86091000  0.35059000  0.14104000  1.0
  Ag  Ag2  1  0.92687000  0.18062000  0.07359000  1.0
  Ag  Ag3  1  0.63909000  0.85059000  0.35896000  1.0
  Ag  Ag4  1  0.42687000  0.31938000  0.57359000  1.0
  Ag  Ag5  1  0.13909000  0.64941000  0.85896000  1.0
  Ag  Ag6  1  0.07313000  0.81938000  0.92641000  1.0
  Ag  Ag7  1  0.36091000  0.14941000  0.64104000  1.0
  Ag  Ag8  1  0.07313000  0.18062000  0.42641000  1.0
  Ag  Ag9  1  0.36091000  0.85059000  0.14104000  1.0
  Ag  Ag10  1  0.42687000  0.68062000  0.07359000  1.0
  Ag  Ag11  1  0.13909000  0.35059000  0.35896000  1.0
  Ag  Ag12  1  0.92687000  0.81938000  0.57359000  1.0
  Ag  Ag13  1  0.63909000  0.14941000  0.85896000  1.0
  Ag  Ag14  1  0.57313000  0.31938000  0.92641000  1.0
  Ag  Ag15  1  0.86091000  0.64941000  0.64104000  1.0
  H  H16  1  0.74630000  0.51110000  0.23840000  1.0
  H  H17  1  0.84300000  0.74100000  0.14630000  1.0
  H  H18  1  0.91690000  0.51520000  0.01390000  1.0
  H  H19  1  0.75370000  0.01110000  0.26160000  1.0
  H  H20  1  0.65700000  0.24100000  0.35370000  1.0
  H  H21  1  0.58310000  0.01520000  0.48610000  1.0
  H  H22  1  0.25370000  0.48890000  0.76160000  1.0
  H  H23  1  0.15700000  0.25900000  0.85370000  1.0
  H  H24  1  0.08310000  0.48480000  0.98610000  1.0
  H  H25  1  0.24630000  0.98890000  0.73840000  1.0
  H  H26  1  0.34300000  0.75900000  0.64630000  1.0
  H  H27  1  0.41690000  0.98480000  0.51390000  1.0
  H  H28  1  0.24630000  0.01110000  0.23840000  1.0
  H  H29  1  0.34300000  0.24100000  0.14630000  1.0
  H  H30  1  0.41690000  0.01520000  0.01390000  1.0
  H  H31  1  0.25370000  0.51110000  0.26160000  1.0
  H  H32  1  0.15700000  0.74100000  0.35370000  1.0
  H  H33  1  0.08310000  0.51520000  0.48610000  1.0
  H  H34  1  0.75370000  0.98890000  0.76160000  1.0
  H  H35  1  0.65700000  0.75900000  0.85370000  1.0
  H  H36  1  0.58310000  0.98480000  0.98610000  1.0
  H  H37  1  0.74630000  0.48890000  0.73840000  1.0
  H  H38  1  0.84300000  0.25900000  0.64630000  1.0
  H  H39  1  0.91690000  0.48480000  0.51390000  1.0
  C  C40  1  0.78340000  0.54270000  0.19510000  1.0
  C  C41  1  0.78400000  0.63330000  0.20160000  1.0
  C  C42  1  0.72550000  0.67930000  0.28010000  1.0
  C  C43  1  0.83980000  0.68020000  0.14010000  1.0
  C  C44  1  0.89160000  0.63600000  0.06810000  1.0
  C  C45  1  0.88470000  0.54550000  0.06420000  1.0
  C  C46  1  0.95840000  0.68150000  0.00070000  1.0
  C  C47  1  0.71660000  0.04270000  0.30490000  1.0
  C  C48  1  0.71600000  0.13330000  0.29840000  1.0
  C  C49  1  0.77450000  0.17930000  0.21990000  1.0
  C  C50  1  0.66020000  0.18020000  0.35990000  1.0
  C  C51  1  0.60840000  0.13600000  0.43190000  1.0
  C  C52  1  0.61530000  0.04550000  0.43580000  1.0
  C  C53  1  0.54160000  0.18150000  0.49930000  1.0
  C  C54  1  0.21660000  0.45730000  0.80490000  1.0
  C  C55  1  0.21600000  0.36670000  0.79840000  1.0
  C  C56  1  0.27450000  0.32070000  0.71990000  1.0
  C  C57  1  0.16020000  0.31980000  0.85990000  1.0
  C  C58  1  0.10840000  0.36400000  0.93190000  1.0
  C  C59  1  0.11530000  0.45450000  0.93580000  1.0
  C  C60  1  0.04160000  0.31850000  0.99930000  1.0
  C  C61  1  0.28340000  0.95730000  0.69510000  1.0
  C  C62  1  0.28400000  0.86670000  0.70160000  1.0
  C  C63  1  0.22550000  0.82070000  0.78010000  1.0
  C  C64  1  0.33980000  0.81980000  0.64010000  1.0
  C  C65  1  0.39160000  0.86400000  0.56810000  1.0
  C  C66  1  0.38470000  0.95450000  0.56420000  1.0
  C  C67  1  0.45840000  0.81850000  0.50070000  1.0
  C  C68  1  0.28340000  0.04270000  0.19510000  1.0
  C  C69  1  0.28400000  0.13330000  0.20160000  1.0
  C  C70  1  0.22550000  0.17930000  0.28010000  1.0
  C  C71  1  0.33980000  0.18020000  0.14010000  1.0
  C  C72  1  0.39160000  0.13600000  0.06810000  1.0
  C  C73  1  0.38470000  0.04550000  0.06420000  1.0
  C  C74  1  0.45840000  0.18150000  0.00070000  1.0
  C  C75  1  0.21660000  0.54270000  0.30490000  1.0
  C  C76  1  0.21600000  0.63330000  0.29840000  1.0
  C  C77  1  0.27450000  0.67930000  0.21990000  1.0
  C  C78  1  0.16020000  0.68020000  0.35990000  1.0
  C  C79  1  0.10840000  0.63600000  0.43190000  1.0
  C  C80  1  0.11530000  0.54550000  0.43580000  1.0
  C  C81  1  0.04160000  0.68150000  0.49930000  1.0
  C  C82  1  0.71660000  0.95730000  0.80490000  1.0
  C  C83  1  0.71600000  0.86670000  0.79840000  1.0
  C  C84  1  0.77450000  0.82070000  0.71990000  1.0
  C  C85  1  0.66020000  0.81980000  0.85990000  1.0
  C  C86  1  0.60840000  0.86400000  0.93190000  1.0
  C  C87  1  0.61530000  0.95450000  0.93580000  1.0
  C  C88  1  0.54160000  0.81850000  0.99930000  1.0
  C  C89  1  0.78340000  0.45730000  0.69510000  1.0
  C  C90  1  0.78400000  0.36670000  0.70160000  1.0
  C  C91  1  0.72550000  0.32070000  0.78010000  1.0
  C  C92  1  0.83980000  0.31980000  0.64010000  1.0
  C  C93  1  0.89160000  0.36400000  0.56810000  1.0
  C  C94  1  0.88470000  0.45450000  0.56420000  1.0
  C  C95  1  0.95840000  0.31850000  0.50070000  1.0
  N  N96  1  0.83450000  0.49950000  0.12840000  1.0
  N  N97  1  0.66550000  0.99950000  0.37160000  1.0
  N  N98  1  0.16550000  0.50050000  0.87160000  1.0
  N  N99  1  0.33450000  0.00050000  0.62840000  1.0
  N  N100  1  0.33450000  0.99950000  0.12840000  1.0
  N  N101  1  0.16550000  0.49950000  0.37160000  1.0
  N  N102  1  0.66550000  0.00050000  0.87160000  1.0
  N  N103  1  0.83450000  0.50050000  0.62840000  1.0
  O  O104  1  0.66690000  0.63170000  0.31920000  1.0
  O  O105  1  0.74170000  0.75910000  0.29730000  1.0
  O  O106  1  0.97030000  0.76200000  0.02030000  1.0
  O  O107  1  0.99700000  0.63510000  0.93410000  1.0
  O  O108  1  0.83310000  0.13170000  0.18080000  1.0
  O  O109  1  0.75830000  0.25910000  0.20270000  1.0
  O  O110  1  0.52970000  0.26200000  0.47970000  1.0
  O  O111  1  0.50300000  0.13510000  0.56590000  1.0
  O  O112  1  0.33310000  0.36830000  0.68080000  1.0
  O  O113  1  0.25830000  0.24090000  0.70270000  1.0
  O  O114  1  0.02970000  0.23800000  0.97970000  1.0
  O  O115  1  0.00300000  0.36490000  0.06590000  1.0
  O  O116  1  0.16690000  0.86830000  0.81920000  1.0
  O  O117  1  0.24170000  0.74090000  0.79730000  1.0
  O  O118  1  0.47030000  0.73800000  0.52030000  1.0
  O  O119  1  0.49700000  0.86490000  0.43410000  1.0
  O  O120  1  0.16690000  0.13170000  0.31920000  1.0
  O  O121  1  0.24170000  0.25910000  0.29730000  1.0
  O  O122  1  0.47030000  0.26200000  0.02030000  1.0
  O  O123  1  0.49700000  0.13510000  0.93410000  1.0
  O  O124  1  0.33310000  0.63170000  0.18080000  1.0
  O  O125  1  0.25830000  0.75910000  0.20270000  1.0
  O  O126  1  0.02970000  0.76200000  0.47970000  1.0
  O  O127  1  0.00300000  0.63510000  0.56590000  1.0
  O  O128  1  0.83310000  0.86830000  0.68080000  1.0
  O  O129  1  0.75830000  0.74090000  0.70270000  1.0
  O  O130  1  0.52970000  0.73800000  0.97970000  1.0
  O  O131  1  0.50300000  0.86490000  0.06590000  1.0
  O  O132  1  0.66690000  0.36830000  0.81920000  1.0
  O  O133  1  0.74170000  0.24090000  0.79730000  1.0
  O  O134  1  0.97030000  0.23800000  0.52030000  1.0
  O  O135  1  0.99700000  0.36490000  0.43410000  1.0
