# generated using pymatgen
data_Ti6Cu2P2H43C34I2(N2O9)2
_symmetry_space_group_name_H-M   'P 1'
_cell_length_a   13.52700000
_cell_length_b   25.84700000
_cell_length_c   26.65700000
_cell_angle_alpha   98.87000000
_cell_angle_beta   103.89200000
_cell_angle_gamma   103.72500000
_symmetry_Int_Tables_number   1
_chemical_formula_structural   Ti6Cu2P2H43C34I2(N2O9)2
_chemical_formula_sum   'Ti24 Cu8 P8 H172 C136 I8 N16 O72'
_cell_volume   8566.02232335
_cell_formula_units_Z   4
loop_
 _symmetry_equiv_pos_site_id
 _symmetry_equiv_pos_as_xyz
  1  'x, y, z'
loop_
 _atom_site_type_symbol
 _atom_site_label
 _atom_site_symmetry_multiplicity
 _atom_site_fract_x
 _atom_site_fract_y
 _atom_site_fract_z
 _atom_site_occupancy
  Ti  Ti0  1  0.51685000  0.12140000  0.54975000  1.0
  Ti  Ti1  1  0.10039000  0.08117000  0.08526000  1.0
  Ti  Ti2  1  0.66289000  0.07559000  0.49156000  1.0
  Ti  Ti3  1  0.36642000  0.03510000  0.45032000  1.0
  Ti  Ti4  1  0.38313000  0.42596000  0.42986000  1.0
  Ti  Ti5  1  0.84650000  0.96794000  0.03029000  1.0
  Ti  Ti6  1  0.36135000  0.55552000  0.50330000  1.0
  Ti  Ti7  1  0.05295000  0.96374000  0.10856000  1.0
  Ti  Ti8  1  0.29231000  0.43833000  0.52559000  1.0
  Ti  Ti9  1  0.49027000  0.47251000  0.08136000  1.0
  Ti  Ti10  1  0.50100000  0.40325000  0.94933000  1.0
  Ti  Ti11  1  0.69082000  0.45797000  0.05249000  1.0
  Ti  Ti12  1  0.48315000  0.87860000  0.45025000  1.0
  Ti  Ti13  1  0.89961000  0.91883000  0.91474000  1.0
  Ti  Ti14  1  0.33711000  0.92441000  0.50844000  1.0
  Ti  Ti15  1  0.63358000  0.96490000  0.54968000  1.0
  Ti  Ti16  1  0.61687000  0.57404000  0.57014000  1.0
  Ti  Ti17  1  0.15350000  0.03206000  0.96971000  1.0
  Ti  Ti18  1  0.63865000  0.44448000  0.49670000  1.0
  Ti  Ti19  1  0.94705000  0.03626000  0.89144000  1.0
  Ti  Ti20  1  0.70769000  0.56167000  0.47441000  1.0
  Ti  Ti21  1  0.50973000  0.52749000  0.91864000  1.0
  Ti  Ti22  1  0.49900000  0.59675000  0.05067000  1.0
  Ti  Ti23  1  0.30918000  0.54203000  0.94751000  1.0
  Cu  Cu24  1  0.67207000  0.24126000  0.29369000  1.0
  Cu  Cu25  1  0.68309000  0.24288000  0.19620000  1.0
  Cu  Cu26  1  0.81434000  0.20075000  0.25520000  1.0
  Cu  Cu27  1  0.84358000  0.30495000  0.28391000  1.0
  Cu  Cu28  1  0.32793000  0.75874000  0.70631000  1.0
  Cu  Cu29  1  0.31691000  0.75712000  0.80380000  1.0
  Cu  Cu30  1  0.18566000  0.79925000  0.74480000  1.0
  Cu  Cu31  1  0.15642000  0.69505000  0.71609000  1.0
  P  P32  1  0.28960000  0.42046000  0.97746000  1.0
  P  P33  1  0.50800000  0.98275000  0.38860000  1.0
  P  P34  1  0.46190000  0.54440000  0.40421000  1.0
  P  P35  1  0.88850000  0.08585000  0.00107000  1.0
  P  P36  1  0.71040000  0.57954000  0.02254000  1.0
  P  P37  1  0.49200000  0.01725000  0.61140000  1.0
  P  P38  1  0.53810000  0.45560000  0.59579000  1.0
  P  P39  1  0.11150000  0.91415000  0.99893000  1.0
  H  H40  1  0.88950000  0.40770000  0.25010000  1.0
  H  H41  1  0.99290000  0.49630000  0.28040000  1.0
  H  H42  1  0.83650000  0.02490000  0.29680000  1.0
  H  H43  1  0.01930000  0.37380000  0.38420000  1.0
  H  H44  1  0.55800000  0.58150000  0.32730000  1.0
  H  H45  1  0.50550000  0.61330000  0.25200000  1.0
  H  H46  1  0.33270000  0.60760000  0.21860000  1.0
  H  H47  1  0.21240000  0.57870000  0.25950000  1.0
  H  H48  1  0.26570000  0.55410000  0.34410000  1.0
  H  H49  1  0.31380000  0.58250000  0.60490000  1.0
  H  H50  1  0.32110000  0.48970000  0.64770000  1.0
  H  H51  1  0.33340000  0.54870000  0.68170000  1.0
  H  H52  1  0.42050000  0.54010000  0.65240000  1.0
  H  H53  1  0.12990000  0.49610000  0.58320000  1.0
  H  H54  1  0.14140000  0.55190000  0.56310000  1.0
  H  H55  1  0.15510000  0.55280000  0.62460000  1.0
  H  H56  1  0.32100000  0.31390000  0.43780000  1.0
  H  H57  1  0.36570000  0.33070000  0.54290000  1.0
  H  H58  1  0.42680000  0.31070000  0.50260000  1.0
  H  H59  1  0.32370000  0.26920000  0.50840000  1.0
  H  H60  1  0.16040000  0.25910000  0.45290000  1.0
  H  H61  1  0.15600000  0.29290000  0.40730000  1.0
  H  H62  1  0.13670000  0.31710000  0.46200000  1.0
  H  H63  1  0.65930000  0.31790000  0.12360000  1.0
  H  H64  1  0.39080000  0.17040000  0.02800000  1.0
  H  H65  1  0.49530000  0.16650000  0.10720000  1.0
  H  H66  1  0.09820000  0.37410000  0.89010000  1.0
  H  H67  1  0.94260000  0.30320000  0.87420000  1.0
  H  H68  1  0.91840000  0.25470000  0.93970000  1.0
  H  H69  1  0.04990000  0.27720000  0.02100000  1.0
  H  H70  1  0.20560000  0.34810000  0.03700000  1.0
  H  H71  1  0.78560000  0.52150000  0.16190000  1.0
  H  H72  1  0.69400000  0.56370000  0.22260000  1.0
  H  H73  1  0.63920000  0.56790000  0.16370000  1.0
  H  H74  1  0.76540000  0.59110000  0.18840000  1.0
  H  H75  1  0.78170000  0.48770000  0.23250000  1.0
  H  H76  1  0.73670000  0.43930000  0.18040000  1.0
  H  H77  1  0.65660000  0.45860000  0.20940000  1.0
  H  H78  1  0.82410000  0.47270000  0.94090000  1.0
  H  H79  1  0.70290000  0.45450000  0.90520000  1.0
  H  H80  1  0.78220000  0.42070000  0.89210000  1.0
  H  H81  1  0.76920000  0.34410000  0.91730000  1.0
  H  H82  1  0.67290000  0.33040000  0.94280000  1.0
  H  H83  1  0.79280000  0.35270000  0.98030000  1.0
  H  H84  1  0.79640000  0.10610000  0.30270000  1.0
  H  H85  1  0.94160000  0.14330000  0.19670000  1.0
  H  H86  1  0.75280000  0.11540000  0.92030000  1.0
  H  H87  1  0.65490000  0.17980000  0.91490000  1.0
  H  H88  1  0.66440000  0.23790000  0.99160000  1.0
  H  H89  1  0.76750000  0.23400000  0.07050000  1.0
  H  H90  1  0.86600000  0.17130000  0.07520000  1.0
  H  H91  1  0.30310000  0.08220000  0.14410000  1.0
  H  H92  1  0.29130000  0.03240000  0.22490000  1.0
  H  H93  1  0.24870000  0.08350000  0.21400000  1.0
  H  H94  1  0.37240000  0.08840000  0.22430000  1.0
  H  H95  1  0.41740000  0.04530000  0.14320000  1.0
  H  H96  1  0.32110000  0.02500000  0.08960000  1.0
  H  H97  1  0.33440000  0.98610000  0.13050000  1.0
  H  H98  1  0.91600000  0.86100000  0.10040000  1.0
  H  H99  1  0.73950000  0.83850000  0.11430000  1.0
  H  H100  1  0.79560000  0.90290000  0.13310000  1.0
  H  H101  1  0.85800000  0.86120000  0.15340000  1.0
  H  H102  1  0.84510000  0.79300000  0.05460000  1.0
  H  H103  1  0.90700000  0.83620000  0.02750000  1.0
  H  H104  1  0.53530000  0.30300000  0.33930000  1.0
  H  H105  1  0.47020000  0.30790000  0.41130000  1.0
  H  H106  1  0.63250000  0.17690000  0.37470000  1.0
  H  H107  1  0.55680000  0.04850000  0.31400000  1.0
  H  H108  1  0.56790000  0.02900000  0.22930000  1.0
  H  H109  1  0.54260000  0.94340000  0.18600000  1.0
  H  H110  1  0.47750000  0.87100000  0.22090000  1.0
  H  H111  1  0.48370000  0.88870000  0.31190000  1.0
  H  H112  1  0.31000000  0.11940000  0.56520000  1.0
  H  H113  1  0.22840000  0.14170000  0.46960000  1.0
  H  H114  1  0.31740000  0.18110000  0.52100000  1.0
  H  H115  1  0.19720000  0.15980000  0.52250000  1.0
  H  H116  1  0.14800000  0.06810000  0.54540000  1.0
  H  H117  1  0.23760000  0.03690000  0.55440000  1.0
  H  H118  1  0.16620000  0.03230000  0.49570000  1.0
  H  H119  1  0.81470000  0.14280000  0.58740000  1.0
  H  H120  1  0.75000000  0.23460000  0.59220000  1.0
  H  H121  1  0.82080000  0.21310000  0.55830000  1.0
  H  H122  1  0.86800000  0.23430000  0.62120000  1.0
  H  H123  1  0.69860000  0.13860000  0.65320000  1.0
  H  H124  1  0.82070000  0.17400000  0.67520000  1.0
  H  H125  1  0.78990000  0.11110000  0.64560000  1.0
  H  H126  1  0.11050000  0.59230000  0.74990000  1.0
  H  H127  1  0.00710000  0.50370000  0.71960000  1.0
  H  H128  1  0.16350000  0.97510000  0.70320000  1.0
  H  H129  1  0.98070000  0.62620000  0.61580000  1.0
  H  H130  1  0.44200000  0.41850000  0.67270000  1.0
  H  H131  1  0.49450000  0.38670000  0.74800000  1.0
  H  H132  1  0.66730000  0.39240000  0.78140000  1.0
  H  H133  1  0.78760000  0.42130000  0.74050000  1.0
  H  H134  1  0.73430000  0.44590000  0.65590000  1.0
  H  H135  1  0.68620000  0.41750000  0.39510000  1.0
  H  H136  1  0.67890000  0.51030000  0.35230000  1.0
  H  H137  1  0.66666667  0.45130000  0.31830000  1.0
  H  H138  1  0.57950000  0.45990000  0.34760000  1.0
  H  H139  1  0.87010000  0.50390000  0.41680000  1.0
  H  H140  1  0.85860000  0.44810000  0.43690000  1.0
  H  H141  1  0.84490000  0.44720000  0.37540000  1.0
  H  H142  1  0.67900000  0.68610000  0.56220000  1.0
  H  H143  1  0.63430000  0.66930000  0.45710000  1.0
  H  H144  1  0.57320000  0.68930000  0.49740000  1.0
  H  H145  1  0.67630000  0.73080000  0.49160000  1.0
  H  H146  1  0.83960000  0.74090000  0.54710000  1.0
  H  H147  1  0.84400000  0.70710000  0.59270000  1.0
  H  H148  1  0.86330000  0.68290000  0.53800000  1.0
  H  H149  1  0.34070000  0.68210000  0.87640000  1.0
  H  H150  1  0.60920000  0.82960000  0.97200000  1.0
  H  H151  1  0.50470000  0.83350000  0.89280000  1.0
  H  H152  1  0.90180000  0.62590000  0.10990000  1.0
  H  H153  1  0.05740000  0.69680000  0.12580000  1.0
  H  H154  1  0.08160000  0.74530000  0.06030000  1.0
  H  H155  1  0.95010000  0.72280000  0.97900000  1.0
  H  H156  1  0.79440000  0.65190000  0.96300000  1.0
  H  H157  1  0.21440000  0.47850000  0.83810000  1.0
  H  H158  1  0.30600000  0.43630000  0.77740000  1.0
  H  H159  1  0.36080000  0.43210000  0.83630000  1.0
  H  H160  1  0.23460000  0.40890000  0.81160000  1.0
  H  H161  1  0.21830000  0.51230000  0.76750000  1.0
  H  H162  1  0.26330000  0.56070000  0.81960000  1.0
  H  H163  1  0.34340000  0.54140000  0.79060000  1.0
  H  H164  1  0.17590000  0.52730000  0.05910000  1.0
  H  H165  1  0.29710000  0.54550000  0.09480000  1.0
  H  H166  1  0.21780000  0.57930000  0.10790000  1.0
  H  H167  1  0.23080000  0.65590000  0.08270000  1.0
  H  H168  1  0.32710000  0.66960000  0.05720000  1.0
  H  H169  1  0.20720000  0.64730000  0.01970000  1.0
  H  H170  1  0.20360000  0.89390000  0.69730000  1.0
  H  H171  1  0.05840000  0.85670000  0.80330000  1.0
  H  H172  1  0.24720000  0.88460000  0.07970000  1.0
  H  H173  1  0.34510000  0.82020000  0.08510000  1.0
  H  H174  1  0.33560000  0.76210000  0.00840000  1.0
  H  H175  1  0.23250000  0.76600000  0.92950000  1.0
  H  H176  1  0.13400000  0.82870000  0.92480000  1.0
  H  H177  1  0.69690000  0.91780000  0.85590000  1.0
  H  H178  1  0.70870000  0.96760000  0.77510000  1.0
  H  H179  1  0.75130000  0.91650000  0.78600000  1.0
  H  H180  1  0.62760000  0.91160000  0.77570000  1.0
  H  H181  1  0.58260000  0.95470000  0.85680000  1.0
  H  H182  1  0.67890000  0.97500000  0.91040000  1.0
  H  H183  1  0.66560000  0.01390000  0.86950000  1.0
  H  H184  1  0.08400000  0.13900000  0.89960000  1.0
  H  H185  1  0.26050000  0.16150000  0.88570000  1.0
  H  H186  1  0.20440000  0.09710000  0.86690000  1.0
  H  H187  1  0.14200000  0.13880000  0.84660000  1.0
  H  H188  1  0.15490000  0.20700000  0.94540000  1.0
  H  H189  1  0.09300000  0.16380000  0.97250000  1.0
  H  H190  1  0.46470000  0.69700000  0.66070000  1.0
  H  H191  1  0.52980000  0.69210000  0.58870000  1.0
  H  H192  1  0.36750000  0.82310000  0.62530000  1.0
  H  H193  1  0.44320000  0.95150000  0.68600000  1.0
  H  H194  1  0.43210000  0.97100000  0.77070000  1.0
  H  H195  1  0.45740000  0.05660000  0.81400000  1.0
  H  H196  1  0.52250000  0.12900000  0.77910000  1.0
  H  H197  1  0.51630000  0.11130000  0.68810000  1.0
  H  H198  1  0.69000000  0.88060000  0.43480000  1.0
  H  H199  1  0.77160000  0.85830000  0.53040000  1.0
  H  H200  1  0.68260000  0.81890000  0.47900000  1.0
  H  H201  1  0.80280000  0.84020000  0.47750000  1.0
  H  H202  1  0.85200000  0.93190000  0.45460000  1.0
  H  H203  1  0.76240000  0.96310000  0.44560000  1.0
  H  H204  1  0.83380000  0.96770000  0.50430000  1.0
  H  H205  1  0.18530000  0.85720000  0.41260000  1.0
  H  H206  1  0.25000000  0.76540000  0.40780000  1.0
  H  H207  1  0.17920000  0.78690000  0.44170000  1.0
  H  H208  1  0.13200000  0.76570000  0.37880000  1.0
  H  H209  1  0.30140000  0.86140000  0.34680000  1.0
  H  H210  1  0.17930000  0.82600000  0.32480000  1.0
  H  H211  1  0.21010000  0.88890000  0.35440000  1.0
  C  C212  1  0.93770000  0.41830000  0.28470000  1.0
  C  C213  1  0.99890000  0.47160000  0.30310000  1.0
  C  C214  1  0.07250000  0.45190000  0.38080000  1.0
  C  C215  1  0.85710000  0.04840000  0.27470000  1.0
  C  C216  1  0.01220000  0.39900000  0.36210000  1.0
  C  C217  1  0.15470000  0.47110000  0.43430000  1.0
  C  C218  1  0.42040000  0.56630000  0.34430000  1.0
  C  C219  1  0.48640000  0.58230000  0.31540000  1.0
  C  C220  1  0.45500000  0.59960000  0.26980000  1.0
  C  C221  1  0.35500000  0.59700000  0.25110000  1.0
  C  C222  1  0.28500000  0.58060000  0.27480000  1.0
  C  C223  1  0.31560000  0.56480000  0.32520000  1.0
  C  C224  1  0.28180000  0.54250000  0.60130000  1.0
  C  C225  1  0.34470000  0.52910000  0.65010000  1.0
  C  C226  1  0.16760000  0.53520000  0.59230000  1.0
  C  C227  1  0.29320000  0.32360000  0.46850000  1.0
  C  C228  1  0.35710000  0.30730000  0.50860000  1.0
  C  C229  1  0.17650000  0.29580000  0.44570000  1.0
  C  C230  1  0.60200000  0.28660000  0.10440000  1.0
  C  C231  1  0.53520000  0.28880000  0.05690000  1.0
  C  C232  1  0.44620000  0.20230000  0.04790000  1.0
  C  C233  1  0.50890000  0.19940000  0.09500000  1.0
  C  C234  1  0.55670000  0.34110000  0.03660000  1.0
  C  C235  1  0.16660000  0.36780000  0.96500000  1.0
  C  C236  1  0.08840000  0.35440000  0.91670000  1.0
  C  C237  1  0.99600000  0.31230000  0.90720000  1.0
  C  C238  1  0.98160000  0.28350000  0.94610000  1.0
  C  C239  1  0.05970000  0.29690000  0.99450000  1.0
  C  C240  1  0.15220000  0.33900000  0.00390000  1.0
  C  C241  1  0.71300000  0.51100000  0.16680000  1.0
  C  C242  1  0.70200000  0.56230000  0.18690000  1.0
  C  C243  1  0.72290000  0.47070000  0.20010000  1.0
  C  C244  1  0.73800000  0.41050000  0.95130000  1.0
  C  C245  1  0.76300000  0.44140000  0.92060000  1.0
  C  C246  1  0.74400000  0.35500000  0.94760000  1.0
  C  C247  1  0.83510000  0.09730000  0.27890000  1.0
  C  C248  1  0.91830000  0.11880000  0.21750000  1.0
  C  C249  1  0.93940000  0.06830000  0.21280000  1.0
  C  C250  1  0.99450000  0.05280000  0.17250000  1.0
  C  C251  1  0.81550000  0.13590000  0.99870000  1.0
  C  C252  1  0.75580000  0.13940000  0.95170000  1.0
  C  C253  1  0.69750000  0.17800000  0.94810000  1.0
  C  C254  1  0.70370000  0.21190000  0.99310000  1.0
  C  C255  1  0.76400000  0.20960000  0.03910000  1.0
  C  C256  1  0.82140000  0.17170000  0.04180000  1.0
  C  C257  1  0.28270000  0.04510000  0.15180000  1.0
  C  C258  1  0.30020000  0.06390000  0.20840000  1.0
  C  C259  1  0.34280000  0.02400000  0.12720000  1.0
  C  C260  1  0.84850000  0.86540000  0.07850000  1.0
  C  C261  1  0.80700000  0.86710000  0.12340000  1.0
  C  C262  1  0.84400000  0.82540000  0.03990000  1.0
  C  C263  1  0.54200000  0.27730000  0.36090000  1.0
  C  C264  1  0.50290000  0.28010000  0.40380000  1.0
  C  C265  1  0.55770000  0.20660000  0.42330000  1.0
  C  C266  1  0.59780000  0.20420000  0.38120000  1.0
  C  C267  1  0.56910000  0.16760000  0.45940000  1.0
  C  C268  1  0.54300000  0.01150000  0.29640000  1.0
  C  C269  1  0.54970000  0.99980000  0.24620000  1.0
  C  C270  1  0.53210000  0.94970000  0.22010000  1.0
  C  C271  1  0.49900000  0.90750000  0.24140000  1.0
  C  C272  1  0.49780000  0.91800000  0.29470000  1.0
  C  C273  1  0.27540000  0.10240000  0.52670000  1.0
  C  C274  1  0.25280000  0.15020000  0.50840000  1.0
  C  C275  1  0.20130000  0.05650000  0.53080000  1.0
  C  C276  1  0.76230000  0.15990000  0.59870000  1.0
  C  C277  1  0.80360000  0.21500000  0.59210000  1.0
  C  C278  1  0.76800000  0.14480000  0.64670000  1.0
  C  C279  1  0.51660000  0.97090000  0.32180000  1.0
  C  C280  1  0.06230000  0.58170000  0.71530000  1.0
  C  C281  1  0.00110000  0.52840000  0.69690000  1.0
  C  C282  1  0.92750000  0.54810000  0.61920000  1.0
  C  C283  1  0.14290000  0.95160000  0.72530000  1.0
  C  C284  1  0.98780000  0.60100000  0.63790000  1.0
  C  C285  1  0.84530000  0.52890000  0.56570000  1.0
  C  C286  1  0.57960000  0.43370000  0.65570000  1.0
  C  C287  1  0.51360000  0.41770000  0.68460000  1.0
  C  C288  1  0.54500000  0.40040000  0.73020000  1.0
  C  C289  1  0.64500000  0.40300000  0.74890000  1.0
  C  C290  1  0.71500000  0.41940000  0.72520000  1.0
  C  C291  1  0.68440000  0.43520000  0.67480000  1.0
  C  C292  1  0.71820000  0.45750000  0.39870000  1.0
  C  C293  1  0.65530000  0.47090000  0.34990000  1.0
  C  C294  1  0.83240000  0.46480000  0.40770000  1.0
  C  C295  1  0.70680000  0.67640000  0.53150000  1.0
  C  C296  1  0.64290000  0.69270000  0.49140000  1.0
  C  C297  1  0.82350000  0.70420000  0.55430000  1.0
  C  C298  1  0.39800000  0.71340000  0.89560000  1.0
  C  C299  1  0.46480000  0.71120000  0.94310000  1.0
  C  C300  1  0.55380000  0.79770000  0.95210000  1.0
  C  C301  1  0.49110000  0.80060000  0.90500000  1.0
  C  C302  1  0.44330000  0.65890000  0.96340000  1.0
  C  C303  1  0.83340000  0.63220000  0.03500000  1.0
  C  C304  1  0.91160000  0.64560000  0.08330000  1.0
  C  C305  1  0.00400000  0.68770000  0.09280000  1.0
  C  C306  1  0.01840000  0.71650000  0.05390000  1.0
  C  C307  1  0.94030000  0.70310000  0.00550000  1.0
  C  C308  1  0.84780000  0.66100000  0.99610000  1.0
  C  C309  1  0.28700000  0.48900000  0.83320000  1.0
  C  C310  1  0.29800000  0.43770000  0.81310000  1.0
  C  C311  1  0.27710000  0.52930000  0.79990000  1.0
  C  C312  1  0.26200000  0.58950000  0.04870000  1.0
  C  C313  1  0.23700000  0.55860000  0.07940000  1.0
  C  C314  1  0.25600000  0.64500000  0.05240000  1.0
  C  C315  1  0.16490000  0.90270000  0.72110000  1.0
  C  C316  1  0.08170000  0.88120000  0.78250000  1.0
  C  C317  1  0.06060000  0.93170000  0.78720000  1.0
  C  C318  1  0.00550000  0.94720000  0.82750000  1.0
  C  C319  1  0.18450000  0.86410000  0.00130000  1.0
  C  C320  1  0.24420000  0.86060000  0.04830000  1.0
  C  C321  1  0.30250000  0.82200000  0.05190000  1.0
  C  C322  1  0.29630000  0.78810000  0.00690000  1.0
  C  C323  1  0.23600000  0.79040000  0.96090000  1.0
  C  C324  1  0.17860000  0.82830000  0.95820000  1.0
  C  C325  1  0.71730000  0.95490000  0.84820000  1.0
  C  C326  1  0.69980000  0.93610000  0.79160000  1.0
  C  C327  1  0.65720000  0.97600000  0.87280000  1.0
  C  C328  1  0.15150000  0.13460000  0.92150000  1.0
  C  C329  1  0.19300000  0.13290000  0.87660000  1.0
  C  C330  1  0.15600000  0.17460000  0.96010000  1.0
  C  C331  1  0.45800000  0.72270000  0.63910000  1.0
  C  C332  1  0.49710000  0.71990000  0.59620000  1.0
  C  C333  1  0.44230000  0.79340000  0.57670000  1.0
  C  C334  1  0.40220000  0.79580000  0.61880000  1.0
  C  C335  1  0.43090000  0.83240000  0.54060000  1.0
  C  C336  1  0.45700000  0.98850000  0.70360000  1.0
  C  C337  1  0.45030000  0.00020000  0.75380000  1.0
  C  C338  1  0.46790000  0.05030000  0.77990000  1.0
  C  C339  1  0.50100000  0.09250000  0.75860000  1.0
  C  C340  1  0.50220000  0.08200000  0.70530000  1.0
  C  C341  1  0.72460000  0.89760000  0.47330000  1.0
  C  C342  1  0.74720000  0.84980000  0.49160000  1.0
  C  C343  1  0.79870000  0.94350000  0.46920000  1.0
  C  C344  1  0.23770000  0.84010000  0.40130000  1.0
  C  C345  1  0.19640000  0.78500000  0.40790000  1.0
  C  C346  1  0.23200000  0.85520000  0.35330000  1.0
  C  C347  1  0.48340000  0.02910000  0.67820000  1.0
  I  I348  1  0.87094000  0.24791000  0.35772000  1.0
  I  I349  1  0.65473000  0.32939000  0.25621000  1.0
  I  I350  1  0.59984000  0.14957000  0.22026000  1.0
  I  I351  1  0.88592000  0.26364000  0.19449000  1.0
  I  I352  1  0.12906000  0.75209000  0.64228000  1.0
  I  I353  1  0.34527000  0.67061000  0.74379000  1.0
  I  I354  1  0.40016000  0.85043000  0.77974000  1.0
  I  I355  1  0.11408000  0.73636000  0.80551000  1.0
  N  N356  1  0.58800000  0.24180000  0.12380000  1.0
  N  N357  1  0.59080000  0.23820000  0.34840000  1.0
  N  N358  1  0.94300000  0.38120000  0.31330000  1.0
  N  N359  1  0.86530000  0.13300000  0.25130000  1.0
  N  N360  1  0.50900000  0.24510000  0.43520000  1.0
  N  N361  1  0.45700000  0.24680000  0.02730000  1.0
  N  N362  1  0.90840000  0.03220000  0.23910000  1.0
  N  N363  1  0.06700000  0.49000000  0.35190000  1.0
  N  N364  1  0.41200000  0.75820000  0.87620000  1.0
  N  N365  1  0.40920000  0.76180000  0.65160000  1.0
  N  N366  1  0.05700000  0.61880000  0.68670000  1.0
  N  N367  1  0.13470000  0.86700000  0.74870000  1.0
  N  N368  1  0.49100000  0.75490000  0.56480000  1.0
  N  N369  1  0.54300000  0.75320000  0.97270000  1.0
  N  N370  1  0.09160000  0.96780000  0.76090000  1.0
  N  N371  1  0.93300000  0.51000000  0.64810000  1.0
  O  O372  1  0.36510000  0.09120000  0.51240000  1.0
  O  O373  1  0.37290000  0.47930000  0.48450000  1.0
  O  O374  1  0.30850000  0.97470000  0.46840000  1.0
  O  O375  1  0.52470000  0.17100000  0.49520000  1.0
  O  O376  1  0.98990000  0.00900000  0.06310000  1.0
  O  O377  1  0.51210000  0.06370000  0.49010000  1.0
  O  O378  1  0.66880000  0.12920000  0.55740000  1.0
  O  O379  1  0.83550000  0.92900000  0.96860000  1.0
  O  O380  1  0.41450000  0.00510000  0.39080000  1.0
  O  O381  1  0.90410000  0.92020000  0.07700000  1.0
  O  O382  1  0.15890000  0.43580000  0.46270000  1.0
  O  O383  1  0.99230000  0.11050000  0.04460000  1.0
  O  O384  1  0.17040000  0.03110000  0.12310000  1.0
  O  O385  1  0.02730000  0.08850000  0.14950000  1.0
  O  O386  1  0.62650000  0.13770000  0.45130000  1.0
  O  O387  1  0.61240000  0.02410000  0.42260000  1.0
  O  O388  1  0.41460000  0.48290000  0.39080000  1.0
  O  O389  1  0.31240000  0.38150000  0.47490000  1.0
  O  O390  1  0.00400000  0.00480000  0.16700000  1.0
  O  O391  1  0.30030000  0.51530000  0.55320000  1.0
  O  O392  1  0.82020000  0.03460000  0.01110000  1.0
  O  O393  1  0.53880000  0.44980000  0.02300000  1.0
  O  O394  1  0.58200000  0.56060000  0.41970000  1.0
  O  O395  1  0.49130000  0.58630000  0.55480000  1.0
  O  O396  1  0.49130000  0.92700000  0.40290000  1.0
  O  O397  1  0.41990000  0.57220000  0.44560000  1.0
  O  O398  1  0.35240000  0.39730000  0.94470000  1.0
  O  O399  1  0.49640000  0.33990000  0.99270000  1.0
  O  O400  1  0.90450000  0.07400000  0.94640000  1.0
  O  O401  1  0.21340000  0.51800000  0.44530000  1.0
  O  O402  1  0.25920000  0.46900000  0.95800000  1.0
  O  O403  1  0.48510000  0.54080000  0.08650000  1.0
  O  O404  1  0.34520000  0.43470000  0.03610000  1.0
  O  O405  1  0.64910000  0.48570000  0.11410000  1.0
  O  O406  1  0.63580000  0.37940000  0.06590000  1.0
  O  O407  1  0.66330000  0.42110000  0.97800000  1.0
  O  O408  1  0.63490000  0.90880000  0.48760000  1.0
  O  O409  1  0.62710000  0.52070000  0.51550000  1.0
  O  O410  1  0.69150000  0.02530000  0.53160000  1.0
  O  O411  1  0.47530000  0.82900000  0.50480000  1.0
  O  O412  1  0.01010000  0.99100000  0.93690000  1.0
  O  O413  1  0.48790000  0.93630000  0.50990000  1.0
  O  O414  1  0.33120000  0.87080000  0.44260000  1.0
  O  O415  1  0.16450000  0.07100000  0.03140000  1.0
  O  O416  1  0.58550000  0.99490000  0.60920000  1.0
  O  O417  1  0.09590000  0.07980000  0.92300000  1.0
  O  O418  1  0.84110000  0.56420000  0.53730000  1.0
  O  O419  1  0.00770000  0.88950000  0.95540000  1.0
  O  O420  1  0.82960000  0.96890000  0.87690000  1.0
  O  O421  1  0.97270000  0.91150000  0.85050000  1.0
  O  O422  1  0.37350000  0.86230000  0.54870000  1.0
  O  O423  1  0.38760000  0.97590000  0.57740000  1.0
  O  O424  1  0.58540000  0.51710000  0.60920000  1.0
  O  O425  1  0.68760000  0.61850000  0.52510000  1.0
  O  O426  1  0.99600000  0.99520000  0.83300000  1.0
  O  O427  1  0.69970000  0.48470000  0.44680000  1.0
  O  O428  1  0.17980000  0.96540000  0.98890000  1.0
  O  O429  1  0.46120000  0.55020000  0.97700000  1.0
  O  O430  1  0.41800000  0.43940000  0.58030000  1.0
  O  O431  1  0.50870000  0.41370000  0.44520000  1.0
  O  O432  1  0.50870000  0.07300000  0.59710000  1.0
  O  O433  1  0.58010000  0.42780000  0.55440000  1.0
  O  O434  1  0.64760000  0.60270000  0.05530000  1.0
  O  O435  1  0.50360000  0.66010000  0.00730000  1.0
  O  O436  1  0.09550000  0.92600000  0.05360000  1.0
  O  O437  1  0.78660000  0.48200000  0.55470000  1.0
  O  O438  1  0.74080000  0.53100000  0.04200000  1.0
  O  O439  1  0.51490000  0.45920000  0.91350000  1.0
  O  O440  1  0.65480000  0.56530000  0.96390000  1.0
  O  O441  1  0.35090000  0.51430000  0.88590000  1.0
  O  O442  1  0.36420000  0.62060000  0.93410000  1.0
  O  O443  1  0.33670000  0.57890000  0.02200000  1.0
