# generated using pymatgen
data_VH4C8O5
_symmetry_space_group_name_H-M   'P 1'
_cell_length_a   17.51850000
_cell_length_b   6.87500000
_cell_length_c   12.16800000
_cell_angle_alpha   90.00000000
_cell_angle_beta   90.00000000
_cell_angle_gamma   90.00000000
_symmetry_Int_Tables_number   1
_chemical_formula_structural   VH4C8O5
_chemical_formula_sum   'V4 H16 C32 O20'
_cell_volume   1465.51011750
_cell_formula_units_Z   4
loop_
 _symmetry_equiv_pos_site_id
 _symmetry_equiv_pos_as_xyz
  1  'x, y, z'
loop_
 _atom_site_type_symbol
 _atom_site_label
 _atom_site_symmetry_multiplicity
 _atom_site_fract_x
 _atom_site_fract_y
 _atom_site_fract_z
 _atom_site_occupancy
  V  V0  1  0.00000000  0.00000000  0.00000000  1.0
  V  V1  1  0.50000000  0.00000000  0.50000000  1.0
  V  V2  1  0.00000000  0.50000000  0.00000000  1.0
  V  V3  1  0.50000000  0.50000000  0.50000000  1.0
  H  H4  1  0.20460000  0.45840000  0.18150000  1.0
  H  H5  1  0.31690000  0.45920000  0.27920000  1.0
  H  H6  1  0.29540000  0.54160000  0.68150000  1.0
  H  H7  1  0.18310000  0.54080000  0.77920000  1.0
  H  H8  1  0.79540000  0.95840000  0.81850000  1.0
  H  H9  1  0.68310000  0.95920000  0.72080000  1.0
  H  H10  1  0.70460000  0.04160000  0.31850000  1.0
  H  H11  1  0.81690000  0.04080000  0.22080000  1.0
  H  H12  1  0.79540000  0.54160000  0.81850000  1.0
  H  H13  1  0.68310000  0.54080000  0.72080000  1.0
  H  H14  1  0.70460000  0.45840000  0.31850000  1.0
  H  H15  1  0.81690000  0.45920000  0.22080000  1.0
  H  H16  1  0.20460000  0.04160000  0.18150000  1.0
  H  H17  1  0.31690000  0.04080000  0.27920000  1.0
  H  H18  1  0.29540000  0.95840000  0.68150000  1.0
  H  H19  1  0.18310000  0.95920000  0.77920000  1.0
  C  C20  1  0.22700000  0.57580000  0.20150000  1.0
  C  C21  1  0.29420000  0.57650000  0.25950000  1.0
  C  C22  1  0.27300000  0.42420000  0.70150000  1.0
  C  C23  1  0.20580000  0.42350000  0.75950000  1.0
  C  C24  1  0.77300000  0.07580000  0.79850000  1.0
  C  C25  1  0.70580000  0.07650000  0.74050000  1.0
  C  C26  1  0.72700000  0.92420000  0.29850000  1.0
  C  C27  1  0.79420000  0.92350000  0.24050000  1.0
  C  C28  1  0.77300000  0.42420000  0.79850000  1.0
  C  C29  1  0.70580000  0.42350000  0.74050000  1.0
  C  C30  1  0.72700000  0.57580000  0.29850000  1.0
  C  C31  1  0.79420000  0.57650000  0.24050000  1.0
  C  C32  1  0.22700000  0.92420000  0.20150000  1.0
  C  C33  1  0.29420000  0.92350000  0.25950000  1.0
  C  C34  1  0.27300000  0.07580000  0.70150000  1.0
  C  C35  1  0.20580000  0.07650000  0.75950000  1.0
  C  C36  1  0.32870000  0.75000000  0.28890000  1.0
  C  C37  1  0.19250000  0.75000000  0.17280000  1.0
  C  C38  1  0.39880000  0.75000000  0.35880000  1.0
  C  C39  1  0.11820000  0.75000000  0.11180000  1.0
  C  C40  1  0.17130000  0.25000000  0.78890000  1.0
  C  C41  1  0.30750000  0.25000000  0.67280000  1.0
  C  C42  1  0.10120000  0.25000000  0.85880000  1.0
  C  C43  1  0.38180000  0.25000000  0.61180000  1.0
  C  C44  1  0.67130000  0.25000000  0.71110000  1.0
  C  C45  1  0.80750000  0.25000000  0.82720000  1.0
  C  C46  1  0.60120000  0.25000000  0.64120000  1.0
  C  C47  1  0.88180000  0.25000000  0.88820000  1.0
  C  C48  1  0.82870000  0.75000000  0.21110000  1.0
  C  C49  1  0.69250000  0.75000000  0.32720000  1.0
  C  C50  1  0.89880000  0.75000000  0.14120000  1.0
  C  C51  1  0.61820000  0.75000000  0.38820000  1.0
  O  O52  1  0.08936000  0.91360000  0.08920000  1.0
  O  O53  1  0.42601000  0.58800000  0.38530000  1.0
  O  O54  1  0.41064000  0.08640000  0.58920000  1.0
  O  O55  1  0.07399000  0.41200000  0.88530000  1.0
  O  O56  1  0.91064000  0.41360000  0.91080000  1.0
  O  O57  1  0.57399000  0.08800000  0.61470000  1.0
  O  O58  1  0.58936000  0.58640000  0.41080000  1.0
  O  O59  1  0.92601000  0.91200000  0.11470000  1.0
  O  O60  1  0.91064000  0.08640000  0.91080000  1.0
  O  O61  1  0.57399000  0.41200000  0.61470000  1.0
  O  O62  1  0.58936000  0.91360000  0.41080000  1.0
  O  O63  1  0.92601000  0.58800000  0.11470000  1.0
  O  O64  1  0.08936000  0.58640000  0.08920000  1.0
  O  O65  1  0.42601000  0.91200000  0.38530000  1.0
  O  O66  1  0.41064000  0.41360000  0.58920000  1.0
  O  O67  1  0.07399000  0.08800000  0.88530000  1.0
  O  O68  1  0.99320000  0.75000000  0.92550000  1.0
  O  O69  1  0.50680000  0.25000000  0.42550000  1.0
  O  O70  1  0.00680000  0.25000000  0.07450000  1.0
  O  O71  1  0.49320000  0.75000000  0.57450000  1.0
