# generated using pymatgen
data_Cs4NaYSiH3W11(CO21)2
_symmetry_space_group_name_H-M   'P 1'
_cell_length_a   20.13990000
_cell_length_b   12.65270000
_cell_length_c   21.14730000
_cell_angle_alpha   90.00000000
_cell_angle_beta   110.70200000
_cell_angle_gamma   90.00000000
_symmetry_Int_Tables_number   1
_chemical_formula_structural   Cs4NaYSiH3W11(CO21)2
_chemical_formula_sum   'Cs16 Na4 Y4 Si4 H12 W44 C8 O168'
_cell_volume   5040.89354992
_cell_formula_units_Z   4
loop_
 _symmetry_equiv_pos_site_id
 _symmetry_equiv_pos_as_xyz
  1  'x, y, z'
loop_
 _atom_site_type_symbol
 _atom_site_label
 _atom_site_symmetry_multiplicity
 _atom_site_fract_x
 _atom_site_fract_y
 _atom_site_fract_z
 _atom_site_occupancy
  Cs  Cs0  1  0.18910000  0.23840000  0.43090000  1.0
  Cs  Cs1  1  0.67270000  0.15720000  0.98940000  1.0
  Cs  Cs2  1  0.47220000  0.36850000  0.73890000  1.0
  Cs  Cs3  1  0.02710000  0.38220000  0.76820000  1.0
  Cs  Cs4  1  0.81090000  0.73840000  0.06910000  1.0
  Cs  Cs5  1  0.32730000  0.65720000  0.51060000  1.0
  Cs  Cs6  1  0.52780000  0.86850000  0.76110000  1.0
  Cs  Cs7  1  0.97290000  0.88220000  0.73180000  1.0
  Cs  Cs8  1  0.81090000  0.76160000  0.56910000  1.0
  Cs  Cs9  1  0.32730000  0.84280000  0.01060000  1.0
  Cs  Cs10  1  0.52780000  0.63150000  0.26110000  1.0
  Cs  Cs11  1  0.97290000  0.61780000  0.23180000  1.0
  Cs  Cs12  1  0.18910000  0.26160000  0.93090000  1.0
  Cs  Cs13  1  0.67270000  0.34280000  0.48940000  1.0
  Cs  Cs14  1  0.47220000  0.13150000  0.23890000  1.0
  Cs  Cs15  1  0.02710000  0.11780000  0.26820000  1.0
  Na  Na16  1  0.40540000  0.24650000  0.52100000  1.0
  Na  Na17  1  0.59460000  0.74650000  0.97900000  1.0
  Na  Na18  1  0.59460000  0.75350000  0.47900000  1.0
  Na  Na19  1  0.40540000  0.25350000  0.02100000  1.0
  Y  Y20  1  0.95490000  0.39011000  0.92668000  1.0
  Y  Y21  1  0.04510000  0.89011000  0.57332000  1.0
  Y  Y22  1  0.04510000  0.60989000  0.07332000  1.0
  Y  Y23  1  0.95490000  0.10989000  0.42668000  1.0
  Si  Si24  1  0.75320000  0.37030000  0.76480000  1.0
  Si  Si25  1  0.24680000  0.87030000  0.73520000  1.0
  Si  Si26  1  0.24680000  0.62970000  0.23520000  1.0
  Si  Si27  1  0.75320000  0.12970000  0.26480000  1.0
  H  H28  1  0.11260000  0.62280000  0.88820000  1.0
  H  H29  1  0.14560000  0.62810000  0.96730000  1.0
  H  H30  1  0.17100000  0.54120000  0.92820000  1.0
  H  H31  1  0.88740000  0.12280000  0.61180000  1.0
  H  H32  1  0.85440000  0.12810000  0.53270000  1.0
  H  H33  1  0.82900000  0.04120000  0.57180000  1.0
  H  H34  1  0.88740000  0.37720000  0.11180000  1.0
  H  H35  1  0.85440000  0.37190000  0.03270000  1.0
  H  H36  1  0.82900000  0.45880000  0.07180000  1.0
  H  H37  1  0.11260000  0.87720000  0.38820000  1.0
  H  H38  1  0.14560000  0.87190000  0.46730000  1.0
  H  H39  1  0.17100000  0.95880000  0.42820000  1.0
  W  W40  1  0.58713000  0.34890000  0.63120000  1.0
  W  W41  1  0.62390000  0.57214000  0.75383000  1.0
  W  W42  1  0.66282000  0.39250000  0.87871000  1.0
  W  W43  1  0.80792000  0.19742000  0.90072000  1.0
  W  W44  1  0.78516000  0.57701000  0.88274000  1.0
  W  W45  1  0.63032000  0.17010000  0.76023000  1.0
  W  W46  1  0.83854000  0.37361000  0.64629000  1.0
  W  W47  1  0.88856000  0.18227000  0.79023000  1.0
  W  W48  1  0.87517000  0.57169000  0.76149000  1.0
  W  W49  1  0.71559000  0.56019000  0.63005000  1.0
  W  W50  1  0.71257000  0.16357000  0.64758000  1.0
  W  W51  1  0.41287000  0.84890000  0.86880000  1.0
  W  W52  1  0.37610000  0.07214000  0.74617000  1.0
  W  W53  1  0.33718000  0.89250000  0.62129000  1.0
  W  W54  1  0.19208000  0.69742000  0.59928000  1.0
  W  W55  1  0.21484000  0.07701000  0.61726000  1.0
  W  W56  1  0.36968000  0.67010000  0.73977000  1.0
  W  W57  1  0.16146000  0.87361000  0.85371000  1.0
  W  W58  1  0.11144000  0.68227000  0.70977000  1.0
  W  W59  1  0.12483000  0.07169000  0.73851000  1.0
  W  W60  1  0.28441000  0.06019000  0.86995000  1.0
  W  W61  1  0.28743000  0.66357000  0.85242000  1.0
  W  W62  1  0.41287000  0.65110000  0.36880000  1.0
  W  W63  1  0.37610000  0.42786000  0.24617000  1.0
  W  W64  1  0.33718000  0.60750000  0.12129000  1.0
  W  W65  1  0.19208000  0.80258000  0.09928000  1.0
  W  W66  1  0.21484000  0.42299000  0.11726000  1.0
  W  W67  1  0.36968000  0.82990000  0.23977000  1.0
  W  W68  1  0.16146000  0.62639000  0.35371000  1.0
  W  W69  1  0.11144000  0.81773000  0.20977000  1.0
  W  W70  1  0.12483000  0.42831000  0.23851000  1.0
  W  W71  1  0.28441000  0.43981000  0.36995000  1.0
  W  W72  1  0.28743000  0.83643000  0.35242000  1.0
  W  W73  1  0.58713000  0.15110000  0.13120000  1.0
  W  W74  1  0.62390000  0.92786000  0.25383000  1.0
  W  W75  1  0.66282000  0.10750000  0.37871000  1.0
  W  W76  1  0.80792000  0.30258000  0.40072000  1.0
  W  W77  1  0.78516000  0.92299000  0.38274000  1.0
  W  W78  1  0.63032000  0.32990000  0.26023000  1.0
  W  W79  1  0.83854000  0.12639000  0.14629000  1.0
  W  W80  1  0.88856000  0.31773000  0.29023000  1.0
  W  W81  1  0.87517000  0.92831000  0.26149000  1.0
  W  W82  1  0.71559000  0.93981000  0.13005000  1.0
  W  W83  1  0.71257000  0.33643000  0.14758000  1.0
  C  C84  1  0.07590000  0.51040000  0.93360000  1.0
  C  C85  1  0.13100000  0.58180000  0.92890000  1.0
  C  C86  1  0.92410000  0.01040000  0.56640000  1.0
  C  C87  1  0.86900000  0.08180000  0.57110000  1.0
  C  C88  1  0.92410000  0.48960000  0.06640000  1.0
  C  C89  1  0.86900000  0.41820000  0.07110000  1.0
  C  C90  1  0.07590000  0.98960000  0.43360000  1.0
  C  C91  1  0.13100000  0.91820000  0.42890000  1.0
  O  O92  1  0.93320000  0.67840000  0.77130000  1.0
  O  O93  1  0.57900000  0.07600000  0.77860000  1.0
  O  O94  1  0.55650000  0.66130000  0.72770000  1.0
  O  O95  1  0.95570000  0.25390000  0.85230000  1.0
  O  O96  1  0.50760000  0.37300000  0.56770000  1.0
  O  O97  1  0.71790000  0.14580000  0.82400000  1.0
  O  O98  1  0.85760000  0.11150000  0.85460000  1.0
  O  O99  1  0.81390000  0.68210000  0.93890000  1.0
  O  O100  1  0.79990000  0.10230000  0.95580000  1.0
  O  O101  1  0.88690000  0.26130000  0.95110000  1.0
  O  O102  1  0.62090000  0.36970000  0.93670000  1.0
  O  O103  1  0.85400000  0.48530000  0.91300000  1.0
  O  O104  1  0.81460000  0.29990000  0.81530000  1.0
  O  O105  1  0.71790000  0.45080000  0.80480000  1.0
  O  O106  1  0.78550000  0.44240000  0.71890000  1.0
  O  O107  1  0.61880000  0.28870000  0.81320000  1.0
  O  O108  1  0.92470000  0.48150000  0.82500000  1.0
  O  O109  1  0.69140000  0.64590000  0.82360000  1.0
  O  O110  1  0.55970000  0.24880000  0.68380000  1.0
  O  O111  1  0.65200000  0.09710000  0.69020000  1.0
  O  O112  1  0.79750000  0.63280000  0.67840000  1.0
  O  O113  1  0.67580000  0.64700000  0.56360000  1.0
  O  O114  1  0.93630000  0.07940000  0.77300000  1.0
  O  O115  1  0.79420000  0.13390000  0.71770000  1.0
  O  O116  1  0.88540000  0.28410000  0.71950000  1.0
  O  O117  1  0.59920000  0.49510000  0.82160000  1.0
  O  O118  1  0.72080000  0.50910000  0.92220000  1.0
  O  O119  1  0.73960000  0.29930000  0.90990000  1.0
  O  O120  1  0.67290000  0.60180000  0.69350000  1.0
  O  O121  1  0.62460000  0.23870000  0.59300000  1.0
  O  O122  1  0.64760000  0.44450000  0.60790000  1.0
  O  O123  1  0.89730000  0.48930000  0.69190000  1.0
  O  O124  1  0.77190000  0.47390000  0.59120000  1.0
  O  O125  1  0.76170000  0.27090000  0.61910000  1.0
  O  O126  1  0.58330000  0.45280000  0.69560000  1.0
  O  O127  1  0.81640000  0.61890000  0.80950000  1.0
  O  O128  1  0.36680000  0.30260000  0.61280000  1.0
  O  O129  1  0.17370000  0.39550000  0.81750000  1.0
  O  O130  1  0.03350000  0.54050000  0.96240000  1.0
  O  O131  1  0.31210000  0.12240000  0.48070000  1.0
  O  O132  1  0.06590000  0.42210000  0.90780000  1.0
  O  O133  1  0.69300000  0.29430000  0.71610000  1.0
  O  O134  1  0.06680000  0.17840000  0.72870000  1.0
  O  O135  1  0.42100000  0.57600000  0.72140000  1.0
  O  O136  1  0.44350000  0.16130000  0.77230000  1.0
  O  O137  1  0.04430000  0.75390000  0.64770000  1.0
  O  O138  1  0.49240000  0.87300000  0.93230000  1.0
  O  O139  1  0.28210000  0.64580000  0.67600000  1.0
  O  O140  1  0.14240000  0.61150000  0.64540000  1.0
  O  O141  1  0.18610000  0.18210000  0.56110000  1.0
  O  O142  1  0.20010000  0.60230000  0.54420000  1.0
  O  O143  1  0.11310000  0.76130000  0.54890000  1.0
  O  O144  1  0.37910000  0.86970000  0.56330000  1.0
  O  O145  1  0.14600000  0.98530000  0.58700000  1.0
  O  O146  1  0.18540000  0.79990000  0.68470000  1.0
  O  O147  1  0.28210000  0.95080000  0.69520000  1.0
  O  O148  1  0.21450000  0.94240000  0.78110000  1.0
  O  O149  1  0.38120000  0.78870000  0.68680000  1.0
  O  O150  1  0.07530000  0.98150000  0.67500000  1.0
  O  O151  1  0.30860000  0.14590000  0.67640000  1.0
  O  O152  1  0.44030000  0.74880000  0.81620000  1.0
  O  O153  1  0.34800000  0.59710000  0.80980000  1.0
  O  O154  1  0.20250000  0.13280000  0.82160000  1.0
  O  O155  1  0.32420000  0.14700000  0.93640000  1.0
  O  O156  1  0.06370000  0.57940000  0.72700000  1.0
  O  O157  1  0.20580000  0.63390000  0.78230000  1.0
  O  O158  1  0.11460000  0.78410000  0.78050000  1.0
  O  O159  1  0.40080000  0.99510000  0.67840000  1.0
  O  O160  1  0.27920000  0.00910000  0.57780000  1.0
  O  O161  1  0.26040000  0.79930000  0.59010000  1.0
  O  O162  1  0.32710000  0.10180000  0.80650000  1.0
  O  O163  1  0.37540000  0.73870000  0.90700000  1.0
  O  O164  1  0.35240000  0.94450000  0.89210000  1.0
  O  O165  1  0.10270000  0.98930000  0.80810000  1.0
  O  O166  1  0.22810000  0.97390000  0.90880000  1.0
  O  O167  1  0.23830000  0.77090000  0.88090000  1.0
  O  O168  1  0.41670000  0.95280000  0.80440000  1.0
  O  O169  1  0.18360000  0.11890000  0.69050000  1.0
  O  O170  1  0.63320000  0.80260000  0.88720000  1.0
  O  O171  1  0.82630000  0.89550000  0.68250000  1.0
  O  O172  1  0.96650000  0.04050000  0.53760000  1.0
  O  O173  1  0.68790000  0.62240000  0.01930000  1.0
  O  O174  1  0.93410000  0.92210000  0.59220000  1.0
  O  O175  1  0.30700000  0.79430000  0.78390000  1.0
  O  O176  1  0.06680000  0.32160000  0.22870000  1.0
  O  O177  1  0.42100000  0.92400000  0.22140000  1.0
  O  O178  1  0.44350000  0.33870000  0.27230000  1.0
  O  O179  1  0.04430000  0.74610000  0.14770000  1.0
  O  O180  1  0.49240000  0.62700000  0.43230000  1.0
  O  O181  1  0.28210000  0.85420000  0.17600000  1.0
  O  O182  1  0.14240000  0.88850000  0.14540000  1.0
  O  O183  1  0.18610000  0.31790000  0.06110000  1.0
  O  O184  1  0.20010000  0.89770000  0.04420000  1.0
  O  O185  1  0.11310000  0.73870000  0.04890000  1.0
  O  O186  1  0.37910000  0.63030000  0.06330000  1.0
  O  O187  1  0.14600000  0.51470000  0.08700000  1.0
  O  O188  1  0.18540000  0.70010000  0.18470000  1.0
  O  O189  1  0.28210000  0.54920000  0.19520000  1.0
  O  O190  1  0.21450000  0.55760000  0.28110000  1.0
  O  O191  1  0.38120000  0.71130000  0.18680000  1.0
  O  O192  1  0.07530000  0.51850000  0.17500000  1.0
  O  O193  1  0.30860000  0.35410000  0.17640000  1.0
  O  O194  1  0.44030000  0.75120000  0.31620000  1.0
  O  O195  1  0.34800000  0.90290000  0.30980000  1.0
  O  O196  1  0.20250000  0.36720000  0.32160000  1.0
  O  O197  1  0.32420000  0.35300000  0.43640000  1.0
  O  O198  1  0.06370000  0.92060000  0.22700000  1.0
  O  O199  1  0.20580000  0.86610000  0.28230000  1.0
  O  O200  1  0.11460000  0.71590000  0.28050000  1.0
  O  O201  1  0.40080000  0.50490000  0.17840000  1.0
  O  O202  1  0.27920000  0.49090000  0.07780000  1.0
  O  O203  1  0.26040000  0.70070000  0.09010000  1.0
  O  O204  1  0.32710000  0.39820000  0.30650000  1.0
  O  O205  1  0.37540000  0.76130000  0.40700000  1.0
  O  O206  1  0.35240000  0.55550000  0.39210000  1.0
  O  O207  1  0.10270000  0.51070000  0.30810000  1.0
  O  O208  1  0.22810000  0.52610000  0.40880000  1.0
  O  O209  1  0.23830000  0.72910000  0.38090000  1.0
  O  O210  1  0.41670000  0.54720000  0.30440000  1.0
  O  O211  1  0.18360000  0.38110000  0.19050000  1.0
  O  O212  1  0.63320000  0.69740000  0.38720000  1.0
  O  O213  1  0.82630000  0.60450000  0.18250000  1.0
  O  O214  1  0.96650000  0.45950000  0.03760000  1.0
  O  O215  1  0.68790000  0.87760000  0.51930000  1.0
  O  O216  1  0.93410000  0.57790000  0.09220000  1.0
  O  O217  1  0.30700000  0.70570000  0.28390000  1.0
  O  O218  1  0.93320000  0.82160000  0.27130000  1.0
  O  O219  1  0.57900000  0.42400000  0.27860000  1.0
  O  O220  1  0.55650000  0.83870000  0.22770000  1.0
  O  O221  1  0.95570000  0.24610000  0.35230000  1.0
  O  O222  1  0.50760000  0.12700000  0.06770000  1.0
  O  O223  1  0.71790000  0.35420000  0.32400000  1.0
  O  O224  1  0.85760000  0.38850000  0.35460000  1.0
  O  O225  1  0.81390000  0.81790000  0.43890000  1.0
  O  O226  1  0.79990000  0.39770000  0.45580000  1.0
  O  O227  1  0.88690000  0.23870000  0.45110000  1.0
  O  O228  1  0.62090000  0.13030000  0.43670000  1.0
  O  O229  1  0.85400000  0.01470000  0.41300000  1.0
  O  O230  1  0.81460000  0.20010000  0.31530000  1.0
  O  O231  1  0.71790000  0.04920000  0.30480000  1.0
  O  O232  1  0.78550000  0.05760000  0.21890000  1.0
  O  O233  1  0.61880000  0.21130000  0.31320000  1.0
  O  O234  1  0.92470000  0.01850000  0.32500000  1.0
  O  O235  1  0.69140000  0.85410000  0.32360000  1.0
  O  O236  1  0.55970000  0.25120000  0.18380000  1.0
  O  O237  1  0.65200000  0.40290000  0.19020000  1.0
  O  O238  1  0.79750000  0.86720000  0.17840000  1.0
  O  O239  1  0.67580000  0.85300000  0.06360000  1.0
  O  O240  1  0.93630000  0.42060000  0.27300000  1.0
  O  O241  1  0.79420000  0.36610000  0.21770000  1.0
  O  O242  1  0.88540000  0.21590000  0.21950000  1.0
  O  O243  1  0.59920000  0.00490000  0.32160000  1.0
  O  O244  1  0.72080000  0.99090000  0.42220000  1.0
  O  O245  1  0.73960000  0.20070000  0.40990000  1.0
  O  O246  1  0.67290000  0.89820000  0.19350000  1.0
  O  O247  1  0.62460000  0.26130000  0.09300000  1.0
  O  O248  1  0.64760000  0.05550000  0.10790000  1.0
  O  O249  1  0.89730000  0.01070000  0.19190000  1.0
  O  O250  1  0.77190000  0.02610000  0.09120000  1.0
  O  O251  1  0.76170000  0.22910000  0.11910000  1.0
  O  O252  1  0.58330000  0.04720000  0.19560000  1.0
  O  O253  1  0.81640000  0.88110000  0.30950000  1.0
  O  O254  1  0.36680000  0.19740000  0.11280000  1.0
  O  O255  1  0.17370000  0.10450000  0.31750000  1.0
  O  O256  1  0.03350000  0.95950000  0.46240000  1.0
  O  O257  1  0.31210000  0.37760000  0.98070000  1.0
  O  O258  1  0.06590000  0.07790000  0.40780000  1.0
  O  O259  1  0.69300000  0.20570000  0.21610000  1.0
