# generated using pymatgen
data_Zr6FeH24C48(NO2)4
_symmetry_space_group_name_H-M   'P 1'
_cell_length_a   16.89000000
_cell_length_b   21.43000000
_cell_length_c   21.43000000
_cell_angle_alpha   120.00000000
_cell_angle_beta   90.00000000
_cell_angle_gamma   90.00000000
_symmetry_Int_Tables_number   1
_chemical_formula_structural   Zr6FeH24C48(NO2)4
_chemical_formula_sum   'Zr18 Fe3 H72 C144 N12 O24'
_cell_volume   6717.45279680
_cell_formula_units_Z   3
loop_
 _symmetry_equiv_pos_site_id
 _symmetry_equiv_pos_as_xyz
  1  'x, y, z'
loop_
 _atom_site_type_symbol
 _atom_site_label
 _atom_site_symmetry_multiplicity
 _atom_site_fract_x
 _atom_site_fract_y
 _atom_site_fract_z
 _atom_site_occupancy
  Zr  Zr0  1  0.00000000  0.93350000  0.06770000  1.0
  Zr  Zr1  1  0.00000000  0.93230000  0.86580000  1.0
  Zr  Zr2  1  0.00000000  0.06650000  0.93230000  1.0
  Zr  Zr3  1  0.89540000  0.92230000  0.92260000  1.0
  Zr  Zr4  1  0.00000000  0.13420000  0.06650000  1.0
  Zr  Zr5  1  0.89540000  0.07740000  0.99970000  1.0
  Zr  Zr6  1  0.00000000  0.86580000  0.93350000  1.0
  Zr  Zr7  1  0.10460000  0.00030000  0.07770000  1.0
  Zr  Zr8  1  0.10460000  0.92230000  0.92260000  1.0
  Zr  Zr9  1  0.89540000  0.07770000  0.07740000  1.0
  Zr  Zr10  1  0.10460000  0.07740000  0.99970000  1.0
  Zr  Zr11  1  0.00000000  0.06770000  0.13420000  1.0
  Zr  Zr12  1  0.10460000  0.07770000  0.07740000  1.0
  Zr  Zr13  1  0.89540000  0.00030000  0.07770000  1.0
  Zr  Zr14  1  0.10460000  0.92260000  0.00030000  1.0
  Zr  Zr15  1  0.89540000  0.92260000  0.00030000  1.0
  Zr  Zr16  1  0.89540000  0.99970000  0.92230000  1.0
  Zr  Zr17  1  0.10460000  0.99970000  0.92230000  1.0
  Fe  Fe18  1  0.50000000  0.50000000  0.00000000  1.0
  Fe  Fe19  1  0.50000000  0.50000000  0.50000000  1.0
  Fe  Fe20  1  0.50000000  0.00000000  0.50000000  1.0
  H  H21  1  0.70430000  0.72250000  0.60130000  1.0
  H  H22  1  0.70430000  0.27750000  0.39870000  1.0
  H  H23  1  0.70430000  0.12120000  0.72250000  1.0
  H  H24  1  0.82340000  0.79450000  0.07960000  1.0
  H  H25  1  0.29570000  0.87880000  0.27750000  1.0
  H  H26  1  0.17660000  0.20550000  0.92040000  1.0
  H  H27  1  0.20190000  0.44440000  0.44070000  1.0
  H  H28  1  0.79460000  0.32490000  0.13690000  1.0
  H  H29  1  0.26690000  0.72070000  0.09520000  1.0
  H  H30  1  0.57170000  0.27410000  0.25950000  1.0
  H  H31  1  0.70430000  0.87880000  0.27750000  1.0
  H  H32  1  0.20540000  0.13690000  0.81200000  1.0
  H  H33  1  0.73310000  0.09520000  0.37450000  1.0
  H  H34  1  0.57170000  0.72590000  0.74050000  1.0
  H  H35  1  0.82340000  0.92040000  0.71490000  1.0
  H  H36  1  0.57170000  0.01460000  0.27410000  1.0
  H  H37  1  0.42830000  0.74050000  0.01460000  1.0
  H  H38  1  0.26690000  0.09520000  0.37450000  1.0
  H  H39  1  0.79460000  0.13690000  0.81200000  1.0
  H  H40  1  0.29570000  0.72250000  0.60130000  1.0
  H  H41  1  0.26690000  0.90480000  0.62550000  1.0
  H  H42  1  0.29570000  0.27750000  0.39870000  1.0
  H  H43  1  0.79460000  0.86310000  0.18800000  1.0
  H  H44  1  0.20540000  0.32490000  0.13690000  1.0
  H  H45  1  0.57170000  0.98540000  0.72590000  1.0
  H  H46  1  0.17660000  0.79450000  0.07960000  1.0
  H  H47  1  0.20540000  0.86310000  0.18800000  1.0
  H  H48  1  0.79810000  0.99630000  0.55560000  1.0
  H  H49  1  0.73310000  0.37450000  0.27930000  1.0
  H  H50  1  0.73310000  0.27930000  0.90480000  1.0
  H  H51  1  0.70430000  0.39870000  0.12120000  1.0
  H  H52  1  0.20190000  0.00370000  0.44440000  1.0
  H  H53  1  0.29570000  0.60130000  0.87880000  1.0
  H  H54  1  0.42830000  0.25950000  0.98540000  1.0
  H  H55  1  0.20190000  0.55560000  0.55930000  1.0
  H  H56  1  0.79460000  0.18800000  0.32490000  1.0
  H  H57  1  0.79460000  0.67510000  0.86310000  1.0
  H  H58  1  0.26690000  0.37450000  0.27930000  1.0
  H  H59  1  0.17660000  0.92040000  0.71490000  1.0
  H  H60  1  0.57170000  0.74050000  0.01460000  1.0
  H  H61  1  0.26690000  0.27930000  0.90480000  1.0
  H  H62  1  0.82340000  0.71490000  0.79450000  1.0
  H  H63  1  0.79460000  0.81200000  0.67510000  1.0
  H  H64  1  0.26690000  0.62550000  0.72070000  1.0
  H  H65  1  0.20540000  0.67510000  0.86310000  1.0
  H  H66  1  0.82340000  0.20550000  0.92040000  1.0
  H  H67  1  0.20540000  0.18800000  0.32490000  1.0
  H  H68  1  0.20190000  0.44070000  0.99630000  1.0
  H  H69  1  0.73310000  0.90480000  0.62550000  1.0
  H  H70  1  0.17660000  0.07960000  0.28510000  1.0
  H  H71  1  0.79810000  0.00370000  0.44440000  1.0
  H  H72  1  0.79810000  0.55560000  0.55930000  1.0
  H  H73  1  0.79810000  0.44440000  0.44070000  1.0
  H  H74  1  0.82340000  0.28510000  0.20550000  1.0
  H  H75  1  0.79810000  0.44070000  0.99630000  1.0
  H  H76  1  0.20190000  0.99630000  0.55560000  1.0
  H  H77  1  0.42830000  0.01460000  0.27410000  1.0
  H  H78  1  0.73310000  0.72070000  0.09520000  1.0
  H  H79  1  0.17660000  0.71490000  0.79450000  1.0
  H  H80  1  0.29570000  0.12120000  0.72250000  1.0
  H  H81  1  0.73310000  0.62550000  0.72070000  1.0
  H  H82  1  0.29570000  0.39870000  0.12120000  1.0
  H  H83  1  0.42830000  0.72590000  0.74050000  1.0
  H  H84  1  0.20540000  0.81200000  0.67510000  1.0
  H  H85  1  0.42830000  0.98540000  0.72590000  1.0
  H  H86  1  0.82340000  0.07960000  0.28510000  1.0
  H  H87  1  0.57170000  0.25950000  0.98540000  1.0
  H  H88  1  0.42830000  0.27410000  0.25950000  1.0
  H  H89  1  0.70430000  0.60130000  0.87880000  1.0
  H  H90  1  0.17660000  0.28510000  0.20550000  1.0
  H  H91  1  0.79810000  0.55930000  0.00370000  1.0
  H  H92  1  0.20190000  0.55930000  0.00370000  1.0
  C  C93  1  0.54008000  0.29750000  0.98830000  1.0
  C  C94  1  0.28990000  0.98850000  0.33450000  1.0
  C  C95  1  0.81760000  0.03010000  0.77190000  1.0
  C  C96  1  0.72850000  0.35950000  0.08040000  1.0
  C  C97  1  0.71010000  0.66550000  0.65400000  1.0
  C  C98  1  0.20080000  0.24470000  0.96120000  1.0
  C  C99  1  0.81760000  0.25820000  0.03010000  1.0
  C  C100  1  0.72850000  0.91960000  0.27910000  1.0
  C  C101  1  0.67640000  0.55030000  0.55290000  1.0
  C  C102  1  0.71010000  0.65400000  0.98850000  1.0
  C  C103  1  0.71010000  0.01150000  0.66550000  1.0
  C  C104  1  0.21790000  0.31570000  0.08970000  1.0
  C  C105  1  0.79920000  0.71650000  0.75530000  1.0
  C  C106  1  0.35420000  0.38810000  0.00120000  1.0
  C  C107  1  0.27150000  0.27910000  0.35950000  1.0
  C  C108  1  0.67640000  0.55290000  0.00260000  1.0
  C  C109  1  0.75240000  0.46940000  0.46750000  1.0
  C  C110  1  0.67640000  0.44710000  0.99740000  1.0
  C  C111  1  0.28990000  0.66550000  0.65400000  1.0
  C  C112  1  0.20080000  0.96120000  0.71650000  1.0
  C  C113  1  0.25450000  0.66330000  0.71140000  1.0
  C  C114  1  0.21790000  0.77400000  0.68430000  1.0
  C  C115  1  0.64580000  0.00120000  0.61310000  1.0
  C  C116  1  0.21790000  0.22600000  0.31570000  1.0
  C  C117  1  0.75240000  0.99810000  0.53060000  1.0
  C  C118  1  0.78210000  0.77400000  0.68430000  1.0
  C  C119  1  0.72850000  0.27910000  0.35950000  1.0
  C  C120  1  0.45992000  0.69080000  0.70250000  1.0
  C  C121  1  0.64580000  0.38810000  0.00120000  1.0
  C  C122  1  0.79920000  0.24470000  0.96120000  1.0
  C  C123  1  0.43040000  0.35850000  0.99310000  1.0
  C  C124  1  0.35420000  0.38690000  0.38810000  1.0
  C  C125  1  0.86540000  0.20450000  0.03940000  1.0
  C  C126  1  0.21790000  0.91030000  0.22600000  1.0
  C  C127  1  0.13460000  0.79550000  0.96060000  1.0
  C  C128  1  0.20080000  0.75530000  0.03880000  1.0
  C  C129  1  0.32360000  0.00260000  0.44970000  1.0
  C  C130  1  0.35420000  0.61190000  0.99880000  1.0
  C  C131  1  0.25450000  0.28860000  0.95190000  1.0
  C  C132  1  0.24760000  0.53250000  0.00190000  1.0
  C  C133  1  0.54008000  0.01170000  0.30920000  1.0
  C  C134  1  0.54008000  0.69080000  0.70250000  1.0
  C  C135  1  0.28990000  0.34600000  0.01150000  1.0
  C  C136  1  0.74550000  0.71140000  0.04810000  1.0
  C  C137  1  0.25450000  0.95190000  0.66330000  1.0
  C  C138  1  0.45992000  0.01170000  0.30920000  1.0
  C  C139  1  0.72850000  0.08040000  0.72090000  1.0
  C  C140  1  0.27150000  0.08040000  0.72090000  1.0
  C  C141  1  0.20080000  0.28350000  0.24470000  1.0
  C  C142  1  0.79920000  0.03880000  0.28350000  1.0
  C  C143  1  0.75240000  0.00190000  0.46940000  1.0
  C  C144  1  0.43040000  0.63460000  0.64150000  1.0
  C  C145  1  0.13460000  0.16510000  0.20450000  1.0
  C  C146  1  0.54008000  0.30920000  0.29750000  1.0
  C  C147  1  0.43040000  0.00690000  0.36540000  1.0
  C  C148  1  0.43040000  0.36540000  0.35850000  1.0
  C  C149  1  0.56960000  0.00690000  0.36540000  1.0
  C  C150  1  0.45992000  0.30920000  0.29750000  1.0
  C  C151  1  0.18240000  0.74180000  0.96990000  1.0
  C  C152  1  0.24760000  0.46940000  0.46750000  1.0
  C  C153  1  0.56960000  0.35850000  0.99310000  1.0
  C  C154  1  0.32360000  0.44970000  0.44710000  1.0
  C  C155  1  0.78210000  0.31570000  0.08970000  1.0
  C  C156  1  0.43040000  0.99310000  0.63460000  1.0
  C  C157  1  0.32360000  0.55290000  0.00260000  1.0
  C  C158  1  0.81760000  0.77190000  0.74180000  1.0
  C  C159  1  0.86540000  0.79550000  0.96060000  1.0
  C  C160  1  0.35420000  0.61310000  0.61190000  1.0
  C  C161  1  0.20080000  0.71650000  0.75530000  1.0
  C  C162  1  0.79920000  0.28350000  0.24470000  1.0
  C  C163  1  0.27150000  0.64050000  0.91960000  1.0
  C  C164  1  0.86540000  0.03940000  0.83490000  1.0
  C  C165  1  0.67640000  0.44970000  0.44710000  1.0
  C  C166  1  0.18240000  0.03010000  0.77190000  1.0
  C  C167  1  0.13460000  0.83490000  0.79550000  1.0
  C  C168  1  0.24760000  0.46750000  0.99810000  1.0
  C  C169  1  0.32360000  0.44710000  0.99740000  1.0
  C  C170  1  0.74550000  0.04810000  0.33670000  1.0
  C  C171  1  0.27150000  0.35950000  0.08040000  1.0
  C  C172  1  0.75240000  0.53060000  0.53250000  1.0
  C  C173  1  0.27150000  0.72090000  0.64050000  1.0
  C  C174  1  0.28990000  0.33450000  0.34600000  1.0
  C  C175  1  0.25450000  0.04810000  0.33670000  1.0
  C  C176  1  0.75240000  0.46750000  0.99810000  1.0
  C  C177  1  0.81760000  0.22810000  0.25820000  1.0
  C  C178  1  0.78210000  0.08970000  0.77400000  1.0
  C  C179  1  0.72850000  0.64050000  0.91960000  1.0
  C  C180  1  0.35420000  0.00120000  0.61310000  1.0
  C  C181  1  0.43040000  0.64150000  0.00690000  1.0
  C  C182  1  0.74550000  0.28860000  0.95190000  1.0
  C  C183  1  0.64580000  0.38690000  0.38810000  1.0
  C  C184  1  0.21790000  0.68430000  0.91030000  1.0
  C  C185  1  0.54008000  0.98830000  0.69080000  1.0
  C  C186  1  0.67640000  0.99740000  0.55030000  1.0
  C  C187  1  0.24760000  0.99810000  0.53060000  1.0
  C  C188  1  0.86540000  0.96060000  0.16510000  1.0
  C  C189  1  0.21790000  0.08970000  0.77400000  1.0
  C  C190  1  0.13460000  0.20450000  0.03940000  1.0
  C  C191  1  0.67640000  0.00260000  0.44970000  1.0
  C  C192  1  0.64580000  0.61190000  0.99880000  1.0
  C  C193  1  0.79920000  0.96120000  0.71650000  1.0
  C  C194  1  0.56960000  0.64150000  0.00690000  1.0
  C  C195  1  0.18240000  0.96990000  0.22810000  1.0
  C  C196  1  0.18240000  0.77190000  0.74180000  1.0
  C  C197  1  0.72850000  0.72090000  0.64050000  1.0
  C  C198  1  0.71010000  0.34600000  0.01150000  1.0
  C  C199  1  0.71010000  0.33450000  0.34600000  1.0
  C  C200  1  0.74550000  0.66330000  0.71140000  1.0
  C  C201  1  0.32360000  0.55030000  0.55290000  1.0
  C  C202  1  0.20080000  0.03880000  0.28350000  1.0
  C  C203  1  0.64580000  0.99880000  0.38690000  1.0
  C  C204  1  0.56960000  0.36540000  0.35850000  1.0
  C  C205  1  0.78210000  0.22600000  0.31570000  1.0
  C  C206  1  0.81760000  0.74180000  0.96990000  1.0
  C  C207  1  0.18240000  0.25820000  0.03010000  1.0
  C  C208  1  0.75240000  0.53250000  0.00190000  1.0
  C  C209  1  0.35420000  0.99880000  0.38690000  1.0
  C  C210  1  0.54008000  0.70250000  0.01170000  1.0
  C  C211  1  0.25450000  0.33670000  0.28860000  1.0
  C  C212  1  0.13460000  0.03940000  0.83490000  1.0
  C  C213  1  0.64580000  0.61310000  0.61190000  1.0
  C  C214  1  0.13460000  0.96060000  0.16510000  1.0
  C  C215  1  0.79920000  0.75530000  0.03880000  1.0
  C  C216  1  0.45992000  0.70250000  0.01170000  1.0
  C  C217  1  0.86540000  0.83490000  0.79550000  1.0
  C  C218  1  0.74550000  0.95190000  0.66330000  1.0
  C  C219  1  0.28990000  0.01150000  0.66550000  1.0
  C  C220  1  0.45992000  0.98830000  0.69080000  1.0
  C  C221  1  0.45992000  0.29750000  0.98830000  1.0
  C  C222  1  0.81760000  0.96990000  0.22810000  1.0
  C  C223  1  0.28990000  0.65400000  0.98850000  1.0
  C  C224  1  0.74550000  0.33670000  0.28860000  1.0
  C  C225  1  0.25450000  0.71140000  0.04810000  1.0
  C  C226  1  0.71010000  0.98850000  0.33450000  1.0
  C  C227  1  0.24760000  0.53060000  0.53250000  1.0
  C  C228  1  0.32360000  0.99740000  0.55030000  1.0
  C  C229  1  0.86540000  0.16510000  0.20450000  1.0
  C  C230  1  0.56960000  0.99310000  0.63460000  1.0
  C  C231  1  0.27150000  0.91960000  0.27910000  1.0
  C  C232  1  0.78210000  0.68430000  0.91030000  1.0
  C  C233  1  0.24760000  0.00190000  0.46940000  1.0
  C  C234  1  0.18240000  0.22810000  0.25820000  1.0
  C  C235  1  0.56960000  0.63460000  0.64150000  1.0
  C  C236  1  0.78210000  0.91030000  0.22600000  1.0
  N  N237  1  0.50000000  0.58920000  0.99500000  1.0
  N  N238  1  0.50000000  0.41080000  0.00500000  1.0
  N  N239  1  0.50000000  0.59420000  0.58920000  1.0
  N  N240  1  0.61330000  0.50000000  0.50000000  1.0
  N  N241  1  0.38670000  0.50000000  0.00000000  1.0
  N  N242  1  0.50000000  0.40580000  0.41080000  1.0
  N  N243  1  0.50000000  0.99500000  0.40580000  1.0
  N  N244  1  0.50000000  0.00500000  0.59420000  1.0
  N  N245  1  0.38670000  0.50000000  0.50000000  1.0
  N  N246  1  0.61330000  0.00000000  0.50000000  1.0
  N  N247  1  0.38670000  0.00000000  0.50000000  1.0
  N  N248  1  0.61330000  0.50000000  0.00000000  1.0
  O  O249  1  0.07590000  0.99840000  0.81520000  1.0
  O  O250  1  0.92410000  0.18320000  0.99840000  1.0
  O  O251  1  0.07590000  0.81520000  0.81680000  1.0
  O  O252  1  0.13760000  0.09790000  0.17510000  1.0
  O  O253  1  0.86240000  0.09790000  0.17510000  1.0
  O  O254  1  0.07590000  0.81680000  0.00160000  1.0
  O  O255  1  0.86240000  0.92280000  0.09790000  1.0
  O  O256  1  0.13760000  0.17510000  0.07720000  1.0
  O  O257  1  0.92410000  0.18480000  0.18320000  1.0
  O  O258  1  0.86240000  0.90210000  0.82490000  1.0
  O  O259  1  0.07590000  0.00160000  0.18480000  1.0
  O  O260  1  0.92410000  0.99840000  0.81520000  1.0
  O  O261  1  0.92410000  0.00160000  0.18480000  1.0
  O  O262  1  0.92410000  0.81520000  0.81680000  1.0
  O  O263  1  0.07590000  0.18320000  0.99840000  1.0
  O  O264  1  0.13760000  0.82490000  0.92280000  1.0
  O  O265  1  0.92410000  0.81680000  0.00160000  1.0
  O  O266  1  0.13760000  0.07720000  0.90210000  1.0
  O  O267  1  0.86240000  0.07720000  0.90210000  1.0
  O  O268  1  0.86240000  0.82490000  0.92280000  1.0
  O  O269  1  0.07590000  0.18480000  0.18320000  1.0
  O  O270  1  0.13760000  0.90210000  0.82490000  1.0
  O  O271  1  0.13760000  0.92280000  0.09790000  1.0
  O  O272  1  0.86240000  0.17510000  0.07720000  1.0
