# generated using pymatgen
data_Zn5H18(C17O9)2
_symmetry_space_group_name_H-M   'P 1'
_cell_length_a   8.62900000
_cell_length_b   9.83970000
_cell_length_c   24.95000000
_cell_angle_alpha   90.51200000
_cell_angle_beta   90.00000000
_cell_angle_gamma   90.00000000
_symmetry_Int_Tables_number   1
_chemical_formula_structural   Zn5H18(C17O9)2
_chemical_formula_sum   'Zn10 H36 C68 O36'
_cell_volume   2118.33936258
_cell_formula_units_Z   2
loop_
 _symmetry_equiv_pos_site_id
 _symmetry_equiv_pos_as_xyz
  1  'x, y, z'
loop_
 _atom_site_type_symbol
 _atom_site_label
 _atom_site_symmetry_multiplicity
 _atom_site_fract_x
 _atom_site_fract_y
 _atom_site_fract_z
 _atom_site_occupancy
  Zn  Zn0  1  0.20058000  0.68731000  0.39875000  1.0
  Zn  Zn1  1  0.31487000  0.76706000  0.07862000  1.0
  Zn  Zn2  1  0.70058000  0.81269000  0.10125000  1.0
  Zn  Zn3  1  0.81487000  0.73294000  0.42138000  1.0
  Zn  Zn4  1  0.79942000  0.31269000  0.60125000  1.0
  Zn  Zn5  1  0.68513000  0.23294000  0.92138000  1.0
  Zn  Zn6  1  0.29942000  0.18731000  0.89875000  1.0
  Zn  Zn7  1  0.18513000  0.26706000  0.57862000  1.0
  Zn  Zn8  1  0.50000000  0.00000000  0.00000000  1.0
  Zn  Zn9  1  0.00000000  0.50000000  0.50000000  1.0
  H  H10  1  0.26550000  0.31040000  0.07090000  1.0
  H  H11  1  0.97240000  0.45830000  0.18230000  1.0
  H  H12  1  0.02190000  0.05340000  0.16470000  1.0
  H  H13  1  0.79450000  0.14590000  0.21510000  1.0
  H  H14  1  0.78820000  0.30270000  0.22700000  1.0
  H  H15  1  0.95800000  0.39610000  0.29890000  1.0
  H  H16  1  0.14290000  0.14700000  0.40680000  1.0
  H  H17  1  0.93220000  0.99600000  0.27410000  1.0
  H  H18  1  0.53030000  0.75780000  0.01970000  1.0
  H  H19  1  0.76550000  0.18960000  0.42910000  1.0
  H  H20  1  0.47240000  0.04170000  0.31770000  1.0
  H  H21  1  0.52190000  0.44660000  0.33530000  1.0
  H  H22  1  0.29450000  0.35410000  0.28490000  1.0
  H  H23  1  0.28820000  0.19730000  0.27300000  1.0
  H  H24  1  0.45800000  0.10390000  0.20110000  1.0
  H  H25  1  0.64290000  0.35300000  0.09320000  1.0
  H  H26  1  0.43220000  0.50400000  0.22590000  1.0
  H  H27  1  0.03030000  0.74220000  0.48030000  1.0
  H  H28  1  0.73450000  0.68960000  0.92910000  1.0
  H  H29  1  0.02760000  0.54170000  0.81770000  1.0
  H  H30  1  0.97810000  0.94660000  0.83530000  1.0
  H  H31  1  0.20550000  0.85410000  0.78490000  1.0
  H  H32  1  0.21180000  0.69730000  0.77300000  1.0
  H  H33  1  0.04200000  0.60390000  0.70110000  1.0
  H  H34  1  0.85710000  0.85300000  0.59320000  1.0
  H  H35  1  0.06780000  0.00400000  0.72590000  1.0
  H  H36  1  0.46970000  0.24220000  0.98030000  1.0
  H  H37  1  0.23450000  0.81040000  0.57090000  1.0
  H  H38  1  0.52760000  0.95830000  0.68230000  1.0
  H  H39  1  0.47810000  0.55340000  0.66470000  1.0
  H  H40  1  0.70550000  0.64590000  0.71510000  1.0
  H  H41  1  0.71180000  0.80270000  0.72700000  1.0
  H  H42  1  0.54200000  0.89610000  0.79890000  1.0
  H  H43  1  0.35710000  0.64700000  0.90680000  1.0
  H  H44  1  0.56780000  0.49600000  0.77410000  1.0
  H  H45  1  0.96970000  0.25780000  0.51970000  1.0
  C  C46  1  0.15550000  0.16040000  0.11456000  1.0
  C  C47  1  0.19620000  0.29560000  0.09880000  1.0
  C  C48  1  0.12880000  0.40440000  0.12666000  1.0
  C  C49  1  0.01840000  0.38400000  0.16537000  1.0
  C  C50  1  0.97370000  0.24920000  0.17986000  1.0
  C  C51  1  0.04670000  0.14150000  0.15453000  1.0
  C  C52  1  0.85690000  0.22490000  0.22408000  1.0
  C  C53  1  0.93750000  0.20230000  0.27785000  1.0
  C  C54  1  0.98060000  0.30830000  0.30991000  1.0
  C  C55  1  0.05630000  0.29110000  0.35800000  1.0
  C  C56  1  0.09060000  0.16050000  0.37467000  1.0
  C  C57  1  0.04610000  0.04920000  0.34305000  1.0
  C  C58  1  0.96580000  0.06970000  0.29456000  1.0
  C  C59  1  0.23760000  0.04070000  0.08918000  1.0
  C  C60  1  0.17550000  0.54700000  0.11255000  1.0
  C  C61  1  0.10570000  0.41220000  0.39147000  1.0
  C  C62  1  0.08310000  0.90920000  0.36196000  1.0
  C  C63  1  0.65550000  0.33960000  0.38544000  1.0
  C  C64  1  0.69620000  0.20440000  0.40120000  1.0
  C  C65  1  0.62880000  0.09560000  0.37334000  1.0
  C  C66  1  0.51840000  0.11600000  0.33463000  1.0
  C  C67  1  0.47370000  0.25080000  0.32014000  1.0
  C  C68  1  0.54670000  0.35850000  0.34547000  1.0
  C  C69  1  0.35690000  0.27510000  0.27592000  1.0
  C  C70  1  0.43750000  0.29770000  0.22215000  1.0
  C  C71  1  0.48060000  0.19170000  0.19009000  1.0
  C  C72  1  0.55630000  0.20890000  0.14200000  1.0
  C  C73  1  0.59060000  0.33950000  0.12533000  1.0
  C  C74  1  0.54610000  0.45080000  0.15695000  1.0
  C  C75  1  0.46580000  0.43030000  0.20544000  1.0
  C  C76  1  0.73760000  0.45930000  0.41082000  1.0
  C  C77  1  0.67550000  0.95300000  0.38745000  1.0
  C  C78  1  0.60570000  0.08780000  0.10853000  1.0
  C  C79  1  0.58310000  0.59080000  0.13804000  1.0
  C  C80  1  0.84450000  0.83960000  0.88544000  1.0
  C  C81  1  0.80380000  0.70440000  0.90120000  1.0
  C  C82  1  0.87120000  0.59560000  0.87334000  1.0
  C  C83  1  0.98160000  0.61600000  0.83463000  1.0
  C  C84  1  0.02630000  0.75080000  0.82014000  1.0
  C  C85  1  0.95330000  0.85850000  0.84547000  1.0
  C  C86  1  0.14310000  0.77510000  0.77592000  1.0
  C  C87  1  0.06250000  0.79770000  0.72215000  1.0
  C  C88  1  0.01940000  0.69170000  0.69009000  1.0
  C  C89  1  0.94370000  0.70890000  0.64200000  1.0
  C  C90  1  0.90940000  0.83950000  0.62533000  1.0
  C  C91  1  0.95390000  0.95080000  0.65695000  1.0
  C  C92  1  0.03420000  0.93030000  0.70544000  1.0
  C  C93  1  0.76240000  0.95930000  0.91082000  1.0
  C  C94  1  0.82450000  0.45300000  0.88745000  1.0
  C  C95  1  0.89430000  0.58780000  0.60853000  1.0
  C  C96  1  0.91690000  0.09080000  0.63804000  1.0
  C  C97  1  0.34450000  0.66040000  0.61456000  1.0
  C  C98  1  0.30380000  0.79560000  0.59880000  1.0
  C  C99  1  0.37120000  0.90440000  0.62666000  1.0
  C  C100  1  0.48160000  0.88400000  0.66537000  1.0
  C  C101  1  0.52630000  0.74920000  0.67986000  1.0
  C  C102  1  0.45330000  0.64150000  0.65453000  1.0
  C  C103  1  0.64310000  0.72490000  0.72408000  1.0
  C  C104  1  0.56250000  0.70230000  0.77785000  1.0
  C  C105  1  0.51940000  0.80830000  0.80991000  1.0
  C  C106  1  0.44370000  0.79110000  0.85800000  1.0
  C  C107  1  0.40940000  0.66050000  0.87467000  1.0
  C  C108  1  0.45390000  0.54920000  0.84305000  1.0
  C  C109  1  0.53420000  0.56970000  0.79456000  1.0
  C  C110  1  0.26240000  0.54070000  0.58918000  1.0
  C  C111  1  0.32450000  0.04700000  0.61255000  1.0
  C  C112  1  0.39430000  0.91220000  0.89147000  1.0
  C  C113  1  0.41690000  0.40920000  0.86196000  1.0
  O  O114  1  0.23780000  0.93330000  0.11345000  1.0
  O  O115  1  0.29250000  0.06040000  0.04199000  1.0
  O  O116  1  0.29080000  0.56550000  0.08047000  1.0
  O  O117  1  0.11660000  0.64510000  0.13418000  1.0
  O  O118  1  0.12300000  0.52160000  0.36520000  1.0
  O  O119  1  0.13100000  0.39780000  0.43934000  1.0
  O  O120  1  0.18560000  0.89570000  0.39816000  1.0
  O  O121  1  0.01100000  0.80980000  0.34484000  1.0
  O  O122  1  0.51120000  0.81980000  0.04252000  1.0
  O  O123  1  0.73780000  0.56670000  0.38655000  1.0
  O  O124  1  0.79250000  0.43960000  0.45801000  1.0
  O  O125  1  0.79080000  0.93450000  0.41953000  1.0
  O  O126  1  0.61660000  0.85490000  0.36582000  1.0
  O  O127  1  0.62300000  0.97840000  0.13480000  1.0
  O  O128  1  0.63100000  0.10220000  0.06066000  1.0
  O  O129  1  0.68560000  0.60430000  0.10184000  1.0
  O  O130  1  0.51100000  0.69020000  0.15516000  1.0
  O  O131  1  0.01120000  0.68020000  0.45748000  1.0
  O  O132  1  0.76220000  0.06670000  0.88655000  1.0
  O  O133  1  0.70750000  0.93960000  0.95801000  1.0
  O  O134  1  0.70920000  0.43450000  0.91953000  1.0
  O  O135  1  0.88340000  0.35490000  0.86582000  1.0
  O  O136  1  0.87700000  0.47840000  0.63480000  1.0
  O  O137  1  0.86900000  0.60220000  0.56066000  1.0
  O  O138  1  0.81440000  0.10430000  0.60184000  1.0
  O  O139  1  0.98900000  0.19020000  0.65516000  1.0
  O  O140  1  0.48880000  0.18020000  0.95748000  1.0
  O  O141  1  0.26220000  0.43330000  0.61345000  1.0
  O  O142  1  0.20750000  0.56040000  0.54199000  1.0
  O  O143  1  0.20920000  0.06550000  0.58047000  1.0
  O  O144  1  0.38340000  0.14510000  0.63418000  1.0
  O  O145  1  0.37700000  0.02160000  0.86520000  1.0
  O  O146  1  0.36900000  0.89780000  0.93934000  1.0
  O  O147  1  0.31440000  0.39570000  0.89816000  1.0
  O  O148  1  0.48900000  0.30980000  0.84484000  1.0
  O  O149  1  0.98880000  0.31980000  0.54252000  1.0
