# generated using pymatgen
data_Lu3H9W12C21N3O43
_symmetry_space_group_name_H-M   'P 1'
_cell_length_a   16.63080000
_cell_length_b   16.63080000
_cell_length_c   51.16400000
_cell_angle_alpha   90.00000000
_cell_angle_beta   90.00000000
_cell_angle_gamma   120.00000000
_symmetry_Int_Tables_number   1
_chemical_formula_structural   Lu3H9W12C21N3O43
_chemical_formula_sum   'Lu18 H54 W72 C126 N18 O258'
_cell_volume   12255.22823079
_cell_formula_units_Z   6
loop_
 _symmetry_equiv_pos_site_id
 _symmetry_equiv_pos_as_xyz
  1  'x, y, z'
loop_
 _atom_site_type_symbol
 _atom_site_label
 _atom_site_symmetry_multiplicity
 _atom_site_fract_x
 _atom_site_fract_y
 _atom_site_fract_z
 _atom_site_occupancy
  Lu  Lu0  1  0.77256000  0.65682000  0.17278000  1.0
  Lu  Lu1  1  0.43923000  0.99015000  0.50612000  1.0
  Lu  Lu2  1  0.10589000  0.32349000  0.83945000  1.0
  Lu  Lu3  1  0.34318000  0.11574000  0.17278000  1.0
  Lu  Lu4  1  0.00985000  0.44907000  0.50612000  1.0
  Lu  Lu5  1  0.67651000  0.78241000  0.83945000  1.0
  Lu  Lu6  1  0.88426000  0.22744000  0.17278000  1.0
  Lu  Lu7  1  0.55093000  0.56077000  0.50612000  1.0
  Lu  Lu8  1  0.21759000  0.89411000  0.83945000  1.0
  Lu  Lu9  1  0.34318000  0.22744000  0.67278000  1.0
  Lu  Lu10  1  0.00985000  0.56077000  0.00612000  1.0
  Lu  Lu11  1  0.67651000  0.89411000  0.33945000  1.0
  Lu  Lu12  1  0.88426000  0.65682000  0.67278000  1.0
  Lu  Lu13  1  0.55093000  0.99015000  0.00612000  1.0
  Lu  Lu14  1  0.21759000  0.32349000  0.33945000  1.0
  Lu  Lu15  1  0.77256000  0.11574000  0.67278000  1.0
  Lu  Lu16  1  0.43923000  0.44907000  0.00612000  1.0
  Lu  Lu17  1  0.10589000  0.78241000  0.33945000  1.0
  H  H18  1  0.59560000  0.83160000  0.05170000  1.0
  H  H19  1  0.72330000  0.83650000  0.11410000  1.0
  H  H20  1  0.63120000  0.61250000  0.06770000  1.0
  H  H21  1  0.26227000  0.16493000  0.38503000  1.0
  H  H22  1  0.38997000  0.16983000  0.44743000  1.0
  H  H23  1  0.29787000  0.94583000  0.40103000  1.0
  H  H24  1  0.92893000  0.49827000  0.71837000  1.0
  H  H25  1  0.05663000  0.50317000  0.78077000  1.0
  H  H26  1  0.96453000  0.27917000  0.73437000  1.0
  H  H27  1  0.16840000  0.76400000  0.05170000  1.0
  H  H28  1  0.16350000  0.88680000  0.11410000  1.0
  H  H29  1  0.38750000  0.01870000  0.06770000  1.0
  H  H30  1  0.83507000  0.09733000  0.38503000  1.0
  H  H31  1  0.83017000  0.22013000  0.44743000  1.0
  H  H32  1  0.05417000  0.35203000  0.40103000  1.0
  H  H33  1  0.50173000  0.43067000  0.71837000  1.0
  H  H34  1  0.49683000  0.55347000  0.78077000  1.0
  H  H35  1  0.72083000  0.68537000  0.73437000  1.0
  H  H36  1  0.23600000  0.40440000  0.05170000  1.0
  H  H37  1  0.11320000  0.27670000  0.11410000  1.0
  H  H38  1  0.98130000  0.36880000  0.06770000  1.0
  H  H39  1  0.90267000  0.73773000  0.38503000  1.0
  H  H40  1  0.77987000  0.61003000  0.44743000  1.0
  H  H41  1  0.64797000  0.70213000  0.40103000  1.0
  H  H42  1  0.56933000  0.07107000  0.71837000  1.0
  H  H43  1  0.44653000  0.94337000  0.78077000  1.0
  H  H44  1  0.31463000  0.03547000  0.73437000  1.0
  H  H45  1  0.16840000  0.40440000  0.55170000  1.0
  H  H46  1  0.16350000  0.27670000  0.61410000  1.0
  H  H47  1  0.38750000  0.36880000  0.56770000  1.0
  H  H48  1  0.83507000  0.73773000  0.88503000  1.0
  H  H49  1  0.83017000  0.61003000  0.94743000  1.0
  H  H50  1  0.05417000  0.70213000  0.90103000  1.0
  H  H51  1  0.50173000  0.07107000  0.21837000  1.0
  H  H52  1  0.49683000  0.94337000  0.28077000  1.0
  H  H53  1  0.72083000  0.03547000  0.23437000  1.0
  H  H54  1  0.23600000  0.83160000  0.55170000  1.0
  H  H55  1  0.11320000  0.83650000  0.61410000  1.0
  H  H56  1  0.98130000  0.61250000  0.56770000  1.0
  H  H57  1  0.90267000  0.16493000  0.88503000  1.0
  H  H58  1  0.77987000  0.16983000  0.94743000  1.0
  H  H59  1  0.64797000  0.94583000  0.90103000  1.0
  H  H60  1  0.56933000  0.49827000  0.21837000  1.0
  H  H61  1  0.44653000  0.50317000  0.28077000  1.0
  H  H62  1  0.31463000  0.27917000  0.23437000  1.0
  H  H63  1  0.59560000  0.76400000  0.55170000  1.0
  H  H64  1  0.72330000  0.88680000  0.61410000  1.0
  H  H65  1  0.63120000  0.01870000  0.56770000  1.0
  H  H66  1  0.26227000  0.09733000  0.88503000  1.0
  H  H67  1  0.38997000  0.22013000  0.94743000  1.0
  H  H68  1  0.29787000  0.35203000  0.90103000  1.0
  H  H69  1  0.92893000  0.43067000  0.21837000  1.0
  H  H70  1  0.05663000  0.55347000  0.28077000  1.0
  H  H71  1  0.96453000  0.68537000  0.23437000  1.0
  W  W72  1  0.52541000  0.63951000  0.17242000  1.0
  W  W73  1  0.29141000  0.43915000  0.16837000  1.0
  W  W74  1  0.39246000  0.59167000  0.11161000  1.0
  W  W75  1  0.48007000  0.73175000  0.22288000  1.0
  W  W76  1  0.19208000  0.97284000  0.50575000  1.0
  W  W77  1  0.95808000  0.77248000  0.50170000  1.0
  W  W78  1  0.05913000  0.92500000  0.44494000  1.0
  W  W79  1  0.14674000  0.06508000  0.55621000  1.0
  W  W80  1  0.85874000  0.30618000  0.83909000  1.0
  W  W81  1  0.62474000  0.10582000  0.83504000  1.0
  W  W82  1  0.72579000  0.25834000  0.77828000  1.0
  W  W83  1  0.81340000  0.39842000  0.88955000  1.0
  W  W84  1  0.36049000  0.88590000  0.17242000  1.0
  W  W85  1  0.56085000  0.85226000  0.16837000  1.0
  W  W86  1  0.40833000  0.80079000  0.11161000  1.0
  W  W87  1  0.26825000  0.74832000  0.22288000  1.0
  W  W88  1  0.02716000  0.21923000  0.50575000  1.0
  W  W89  1  0.22752000  0.18559000  0.50170000  1.0
  W  W90  1  0.07500000  0.13412000  0.44494000  1.0
  W  W91  1  0.93492000  0.08165000  0.55621000  1.0
  W  W92  1  0.69382000  0.55257000  0.83909000  1.0
  W  W93  1  0.89418000  0.51893000  0.83504000  1.0
  W  W94  1  0.74166000  0.46746000  0.77828000  1.0
  W  W95  1  0.60158000  0.41499000  0.88955000  1.0
  W  W96  1  0.11410000  0.47459000  0.17242000  1.0
  W  W97  1  0.14774000  0.70859000  0.16837000  1.0
  W  W98  1  0.19921000  0.60754000  0.11161000  1.0
  W  W99  1  0.25168000  0.51993000  0.22288000  1.0
  W  W100  1  0.78077000  0.80792000  0.50575000  1.0
  W  W101  1  0.81441000  0.04192000  0.50170000  1.0
  W  W102  1  0.86588000  0.94087000  0.44494000  1.0
  W  W103  1  0.91835000  0.85326000  0.55621000  1.0
  W  W104  1  0.44743000  0.14126000  0.83909000  1.0
  W  W105  1  0.48107000  0.37526000  0.83504000  1.0
  W  W106  1  0.53254000  0.27421000  0.77828000  1.0
  W  W107  1  0.58501000  0.18660000  0.88955000  1.0
  W  W108  1  0.36049000  0.47459000  0.67242000  1.0
  W  W109  1  0.56085000  0.70859000  0.66837000  1.0
  W  W110  1  0.40833000  0.60754000  0.61161000  1.0
  W  W111  1  0.26825000  0.51993000  0.72288000  1.0
  W  W112  1  0.02716000  0.80792000  0.00575000  1.0
  W  W113  1  0.22752000  0.04192000  0.00170000  1.0
  W  W114  1  0.07500000  0.94087000  0.94494000  1.0
  W  W115  1  0.93492000  0.85326000  0.05621000  1.0
  W  W116  1  0.69382000  0.14126000  0.33909000  1.0
  W  W117  1  0.89418000  0.37526000  0.33504000  1.0
  W  W118  1  0.74166000  0.27421000  0.27828000  1.0
  W  W119  1  0.60158000  0.18660000  0.38955000  1.0
  W  W120  1  0.11410000  0.63951000  0.67242000  1.0
  W  W121  1  0.14774000  0.43915000  0.66837000  1.0
  W  W122  1  0.19921000  0.59167000  0.61161000  1.0
  W  W123  1  0.25168000  0.73175000  0.72288000  1.0
  W  W124  1  0.78077000  0.97284000  0.00575000  1.0
  W  W125  1  0.81441000  0.77248000  0.00170000  1.0
  W  W126  1  0.86588000  0.92500000  0.94494000  1.0
  W  W127  1  0.91835000  0.06508000  0.05621000  1.0
  W  W128  1  0.44743000  0.30618000  0.33909000  1.0
  W  W129  1  0.48107000  0.10582000  0.33504000  1.0
  W  W130  1  0.53254000  0.25834000  0.27828000  1.0
  W  W131  1  0.58501000  0.39842000  0.38955000  1.0
  W  W132  1  0.52541000  0.88590000  0.67242000  1.0
  W  W133  1  0.29141000  0.85226000  0.66837000  1.0
  W  W134  1  0.39246000  0.80079000  0.61161000  1.0
  W  W135  1  0.48007000  0.74832000  0.72288000  1.0
  W  W136  1  0.19208000  0.21923000  0.00575000  1.0
  W  W137  1  0.95808000  0.18559000  0.00170000  1.0
  W  W138  1  0.05913000  0.13412000  0.94494000  1.0
  W  W139  1  0.14674000  0.08165000  0.05621000  1.0
  W  W140  1  0.85874000  0.55257000  0.33909000  1.0
  W  W141  1  0.62474000  0.51893000  0.33504000  1.0
  W  W142  1  0.72579000  0.46746000  0.27828000  1.0
  W  W143  1  0.81340000  0.41499000  0.38955000  1.0
  C  C144  1  0.68350000  0.71440000  0.09430000  1.0
  C  C145  1  0.60420000  0.71250000  0.05430000  1.0
  C  C146  1  0.71900000  0.66520000  0.11150000  1.0
  C  C147  1  0.55070000  0.66150000  0.03090000  1.0
  C  C148  1  0.61780000  0.79940000  0.06230000  1.0
  C  C149  1  0.69320000  0.79780000  0.09930000  1.0
  C  C150  1  0.63900000  0.67050000  0.07180000  1.0
  C  C151  1  0.35017000  0.04773000  0.42763000  1.0
  C  C152  1  0.27087000  0.04583000  0.38763000  1.0
  C  C153  1  0.38567000  0.99853000  0.44483000  1.0
  C  C154  1  0.21737000  0.99483000  0.36423000  1.0
  C  C155  1  0.28447000  0.13273000  0.39563000  1.0
  C  C156  1  0.35987000  0.13113000  0.43263000  1.0
  C  C157  1  0.30567000  0.00383000  0.40513000  1.0
  C  C158  1  0.01683000  0.38107000  0.76097000  1.0
  C  C159  1  0.93753000  0.37917000  0.72097000  1.0
  C  C160  1  0.05233000  0.33187000  0.77817000  1.0
  C  C161  1  0.88403000  0.32817000  0.69757000  1.0
  C  C162  1  0.95113000  0.46607000  0.72897000  1.0
  C  C163  1  0.02653000  0.46447000  0.76597000  1.0
  C  C164  1  0.97233000  0.33717000  0.73847000  1.0
  C  C165  1  0.28560000  0.96910000  0.09430000  1.0
  C  C166  1  0.28750000  0.89170000  0.05430000  1.0
  C  C167  1  0.33480000  0.05380000  0.11150000  1.0
  C  C168  1  0.33850000  0.88920000  0.03090000  1.0
  C  C169  1  0.20060000  0.81840000  0.06230000  1.0
  C  C170  1  0.20220000  0.89540000  0.09930000  1.0
  C  C171  1  0.32950000  0.96850000  0.07180000  1.0
  C  C172  1  0.95227000  0.30243000  0.42763000  1.0
  C  C173  1  0.95417000  0.22503000  0.38763000  1.0
  C  C174  1  0.00147000  0.38713000  0.44483000  1.0
  C  C175  1  0.00517000  0.22253000  0.36423000  1.0
  C  C176  1  0.86727000  0.15173000  0.39563000  1.0
  C  C177  1  0.86887000  0.22873000  0.43263000  1.0
  C  C178  1  0.99617000  0.30183000  0.40513000  1.0
  C  C179  1  0.61893000  0.63577000  0.76097000  1.0
  C  C180  1  0.62083000  0.55837000  0.72097000  1.0
  C  C181  1  0.66813000  0.72047000  0.77817000  1.0
  C  C182  1  0.67183000  0.55587000  0.69757000  1.0
  C  C183  1  0.53393000  0.48507000  0.72897000  1.0
  C  C184  1  0.53553000  0.56207000  0.76597000  1.0
  C  C185  1  0.66283000  0.63517000  0.73847000  1.0
  C  C186  1  0.03090000  0.31650000  0.09430000  1.0
  C  C187  1  0.10830000  0.39580000  0.05430000  1.0
  C  C188  1  0.94620000  0.28100000  0.11150000  1.0
  C  C189  1  0.11080000  0.44930000  0.03090000  1.0
  C  C190  1  0.18160000  0.38220000  0.06230000  1.0
  C  C191  1  0.10460000  0.30680000  0.09930000  1.0
  C  C192  1  0.03150000  0.36100000  0.07180000  1.0
  C  C193  1  0.69757000  0.64983000  0.42763000  1.0
  C  C194  1  0.77497000  0.72913000  0.38763000  1.0
  C  C195  1  0.61287000  0.61433000  0.44483000  1.0
  C  C196  1  0.77747000  0.78263000  0.36423000  1.0
  C  C197  1  0.84827000  0.71553000  0.39563000  1.0
  C  C198  1  0.77127000  0.64013000  0.43263000  1.0
  C  C199  1  0.69817000  0.69433000  0.40513000  1.0
  C  C200  1  0.36423000  0.98317000  0.76097000  1.0
  C  C201  1  0.44163000  0.06247000  0.72097000  1.0
  C  C202  1  0.27953000  0.94767000  0.77817000  1.0
  C  C203  1  0.44413000  0.11597000  0.69757000  1.0
  C  C204  1  0.51493000  0.04887000  0.72897000  1.0
  C  C205  1  0.43793000  0.97347000  0.76597000  1.0
  C  C206  1  0.36483000  0.02767000  0.73847000  1.0
  C  C207  1  0.28560000  0.31650000  0.59430000  1.0
  C  C208  1  0.28750000  0.39580000  0.55430000  1.0
  C  C209  1  0.33480000  0.28100000  0.61150000  1.0
  C  C210  1  0.33850000  0.44930000  0.53090000  1.0
  C  C211  1  0.20060000  0.38220000  0.56230000  1.0
  C  C212  1  0.20220000  0.30680000  0.59930000  1.0
  C  C213  1  0.32950000  0.36100000  0.57180000  1.0
  C  C214  1  0.95227000  0.64983000  0.92763000  1.0
  C  C215  1  0.95417000  0.72913000  0.88763000  1.0
  C  C216  1  0.00147000  0.61433000  0.94483000  1.0
  C  C217  1  0.00517000  0.78263000  0.86423000  1.0
  C  C218  1  0.86727000  0.71553000  0.89563000  1.0
  C  C219  1  0.86887000  0.64013000  0.93263000  1.0
  C  C220  1  0.99617000  0.69433000  0.90513000  1.0
  C  C221  1  0.61893000  0.98317000  0.26097000  1.0
  C  C222  1  0.62083000  0.06247000  0.22097000  1.0
  C  C223  1  0.66813000  0.94767000  0.27817000  1.0
  C  C224  1  0.67183000  0.11597000  0.19757000  1.0
  C  C225  1  0.53393000  0.04887000  0.22897000  1.0
  C  C226  1  0.53553000  0.97347000  0.26597000  1.0
  C  C227  1  0.66283000  0.02767000  0.23847000  1.0
  C  C228  1  0.03090000  0.71440000  0.59430000  1.0
  C  C229  1  0.10830000  0.71250000  0.55430000  1.0
  C  C230  1  0.94620000  0.66520000  0.61150000  1.0
  C  C231  1  0.11080000  0.66150000  0.53090000  1.0
  C  C232  1  0.18160000  0.79940000  0.56230000  1.0
  C  C233  1  0.10460000  0.79780000  0.59930000  1.0
  C  C234  1  0.03150000  0.67050000  0.57180000  1.0
  C  C235  1  0.69757000  0.04773000  0.92763000  1.0
  C  C236  1  0.77497000  0.04583000  0.88763000  1.0
  C  C237  1  0.61287000  0.99853000  0.94483000  1.0
  C  C238  1  0.77747000  0.99483000  0.86423000  1.0
  C  C239  1  0.84827000  0.13273000  0.89563000  1.0
  C  C240  1  0.77127000  0.13113000  0.93263000  1.0
  C  C241  1  0.69817000  0.00383000  0.90513000  1.0
  C  C242  1  0.36423000  0.38107000  0.26097000  1.0
  C  C243  1  0.44163000  0.37917000  0.22097000  1.0
  C  C244  1  0.27953000  0.33187000  0.27817000  1.0
  C  C245  1  0.44413000  0.32817000  0.19757000  1.0
  C  C246  1  0.51493000  0.46607000  0.22897000  1.0
  C  C247  1  0.43793000  0.46447000  0.26597000  1.0
  C  C248  1  0.36483000  0.33717000  0.23847000  1.0
  C  C249  1  0.68350000  0.96910000  0.59430000  1.0
  C  C250  1  0.60420000  0.89170000  0.55430000  1.0
  C  C251  1  0.71900000  0.05380000  0.61150000  1.0
  C  C252  1  0.55070000  0.88920000  0.53090000  1.0
  C  C253  1  0.61780000  0.81840000  0.56230000  1.0
  C  C254  1  0.69320000  0.89540000  0.59930000  1.0
  C  C255  1  0.63900000  0.96850000  0.57180000  1.0
  C  C256  1  0.35017000  0.30243000  0.92763000  1.0
  C  C257  1  0.27087000  0.22503000  0.88763000  1.0
  C  C258  1  0.38567000  0.38713000  0.94483000  1.0
  C  C259  1  0.21737000  0.22253000  0.86423000  1.0
  C  C260  1  0.28447000  0.15173000  0.89563000  1.0
  C  C261  1  0.35987000  0.22873000  0.93263000  1.0
  C  C262  1  0.30567000  0.30183000  0.90513000  1.0
  C  C263  1  0.01683000  0.63577000  0.26097000  1.0
  C  C264  1  0.93753000  0.55837000  0.22097000  1.0
  C  C265  1  0.05233000  0.72047000  0.27817000  1.0
  C  C266  1  0.88403000  0.55587000  0.19757000  1.0
  C  C267  1  0.95113000  0.48507000  0.22897000  1.0
  C  C268  1  0.02653000  0.56207000  0.26597000  1.0
  C  C269  1  0.97233000  0.63517000  0.23847000  1.0
  N  N270  1  0.66260000  0.83850000  0.08480000  1.0
  N  N271  1  0.32927000  0.17183000  0.41813000  1.0
  N  N272  1  0.99593000  0.50517000  0.75147000  1.0
  N  N273  1  0.16150000  0.82410000  0.08480000  1.0
  N  N274  1  0.82817000  0.15743000  0.41813000  1.0
  N  N275  1  0.49483000  0.49077000  0.75147000  1.0
  N  N276  1  0.17590000  0.33740000  0.08480000  1.0
  N  N277  1  0.84257000  0.67073000  0.41813000  1.0
  N  N278  1  0.50923000  0.00407000  0.75147000  1.0
  N  N279  1  0.16150000  0.33740000  0.58480000  1.0
  N  N280  1  0.82817000  0.67073000  0.91813000  1.0
  N  N281  1  0.49483000  0.00407000  0.25147000  1.0
  N  N282  1  0.17590000  0.83850000  0.58480000  1.0
  N  N283  1  0.84257000  0.17183000  0.91813000  1.0
  N  N284  1  0.50923000  0.50517000  0.25147000  1.0
  N  N285  1  0.66260000  0.82410000  0.58480000  1.0
  N  N286  1  0.32927000  0.15743000  0.91813000  1.0
  N  N287  1  0.99593000  0.49077000  0.25147000  1.0
  O  O288  1  0.42230000  0.52760000  0.17650000  1.0
  O  O289  1  0.61320000  0.61110000  0.16890000  1.0
  O  O290  1  0.61230000  0.77350000  0.16340000  1.0
  O  O291  1  0.26270000  0.55060000  0.17920000  1.0
  O  O292  1  0.48760000  0.63360000  0.13480000  1.0
  O  O293  1  0.52810000  0.58020000  0.02950000  1.0
  O  O294  1  0.75410000  0.70770000  0.13370000  1.0
  O  O295  1  0.27500000  0.42970000  0.20600000  1.0
  O  O296  1  0.31900000  0.48760000  0.13370000  1.0
  O  O297  1  0.39380000  0.77070000  0.22560000  1.0
  O  O298  1  0.44000000  0.71010000  0.09550000  1.0
  O  O299  1  0.53340000  0.70390000  0.01450000  1.0
  O  O300  1  0.71770000  0.59420000  0.10440000  1.0
  O  O301  1  0.54790000  0.66910000  0.20810000  1.0
  O  O302  1  0.08897000  0.86093000  0.50983000  1.0
  O  O303  1  0.27987000  0.94443000  0.50223000  1.0
  O  O304  1  0.27897000  0.10683000  0.49673000  1.0
  O  O305  1  0.92937000  0.88393000  0.51253000  1.0
  O  O306  1  0.15427000  0.96693000  0.46813000  1.0
  O  O307  1  0.19477000  0.91353000  0.36283000  1.0
  O  O308  1  0.42077000  0.04103000  0.46703000  1.0
  O  O309  1  0.94167000  0.76303000  0.53933000  1.0
  O  O310  1  0.98567000  0.82093000  0.46703000  1.0
  O  O311  1  0.06047000  0.10403000  0.55893000  1.0
  O  O312  1  0.10667000  0.04343000  0.42883000  1.0
  O  O313  1  0.20007000  0.03723000  0.34783000  1.0
  O  O314  1  0.38437000  0.92753000  0.43773000  1.0
  O  O315  1  0.21457000  0.00243000  0.54143000  1.0
  O  O316  1  0.75563000  0.19427000  0.84317000  1.0
  O  O317  1  0.94653000  0.27777000  0.83557000  1.0
  O  O318  1  0.94563000  0.44017000  0.83007000  1.0
  O  O319  1  0.59603000  0.21727000  0.84587000  1.0
  O  O320  1  0.82093000  0.30027000  0.80147000  1.0
  O  O321  1  0.86143000  0.24687000  0.69617000  1.0
  O  O322  1  0.08743000  0.37437000  0.80037000  1.0
  O  O323  1  0.60833000  0.09637000  0.87267000  1.0
  O  O324  1  0.65233000  0.15427000  0.80037000  1.0
  O  O325  1  0.72713000  0.43737000  0.89227000  1.0
  O  O326  1  0.77333000  0.37677000  0.76217000  1.0
  O  O327  1  0.86673000  0.37057000  0.68117000  1.0
  O  O328  1  0.05103000  0.26087000  0.77107000  1.0
  O  O329  1  0.88123000  0.33577000  0.87477000  1.0
  O  O330  1  0.47240000  0.89470000  0.17650000  1.0
  O  O331  1  0.38890000  0.00210000  0.16890000  1.0
  O  O332  1  0.22650000  0.83880000  0.16340000  1.0
  O  O333  1  0.44940000  0.71210000  0.17920000  1.0
  O  O334  1  0.36640000  0.85400000  0.13480000  1.0
  O  O335  1  0.41980000  0.94790000  0.02950000  1.0
  O  O336  1  0.29230000  0.04640000  0.13370000  1.0
  O  O337  1  0.57030000  0.84530000  0.20600000  1.0
  O  O338  1  0.51240000  0.83140000  0.13370000  1.0
  O  O339  1  0.22930000  0.62310000  0.22560000  1.0
  O  O340  1  0.28990000  0.72990000  0.09550000  1.0
  O  O341  1  0.29610000  0.82950000  0.01450000  1.0
  O  O342  1  0.40580000  0.12350000  0.10440000  1.0
  O  O343  1  0.33090000  0.87880000  0.20810000  1.0
  O  O344  1  0.13907000  0.22803000  0.50983000  1.0
  O  O345  1  0.05557000  0.33543000  0.50223000  1.0
  O  O346  1  0.89317000  0.17213000  0.49673000  1.0
  O  O347  1  0.11607000  0.04543000  0.51253000  1.0
  O  O348  1  0.03307000  0.18733000  0.46813000  1.0
  O  O349  1  0.08647000  0.28123000  0.36283000  1.0
  O  O350  1  0.95897000  0.37973000  0.46703000  1.0
  O  O351  1  0.23697000  0.17863000  0.53933000  1.0
  O  O352  1  0.17907000  0.16473000  0.46703000  1.0
  O  O353  1  0.89597000  0.95643000  0.55893000  1.0
  O  O354  1  0.95657000  0.06323000  0.42883000  1.0
  O  O355  1  0.96277000  0.16283000  0.34783000  1.0
  O  O356  1  0.07247000  0.45683000  0.43773000  1.0
  O  O357  1  0.99757000  0.21213000  0.54143000  1.0
  O  O358  1  0.80573000  0.56137000  0.84317000  1.0
  O  O359  1  0.72223000  0.66877000  0.83557000  1.0
  O  O360  1  0.55983000  0.50547000  0.83007000  1.0
  O  O361  1  0.78273000  0.37877000  0.84587000  1.0
  O  O362  1  0.69973000  0.52067000  0.80147000  1.0
  O  O363  1  0.75313000  0.61457000  0.69617000  1.0
  O  O364  1  0.62563000  0.71307000  0.80037000  1.0
  O  O365  1  0.90363000  0.51197000  0.87267000  1.0
  O  O366  1  0.84573000  0.49807000  0.80037000  1.0
  O  O367  1  0.56263000  0.28977000  0.89227000  1.0
  O  O368  1  0.62323000  0.39657000  0.76217000  1.0
  O  O369  1  0.62943000  0.49617000  0.68117000  1.0
  O  O370  1  0.73913000  0.79017000  0.77107000  1.0
  O  O371  1  0.66423000  0.54547000  0.87477000  1.0
  O  O372  1  0.10530000  0.57770000  0.17650000  1.0
  O  O373  1  0.99790000  0.38680000  0.16890000  1.0
  O  O374  1  0.16120000  0.38770000  0.16340000  1.0
  O  O375  1  0.28790000  0.73730000  0.17920000  1.0
  O  O376  1  0.14600000  0.51240000  0.13480000  1.0
  O  O377  1  0.05210000  0.47190000  0.02950000  1.0
  O  O378  1  0.95360000  0.24590000  0.13370000  1.0
  O  O379  1  0.15470000  0.72500000  0.20600000  1.0
  O  O380  1  0.16860000  0.68100000  0.13370000  1.0
  O  O381  1  0.37690000  0.60620000  0.22560000  1.0
  O  O382  1  0.27010000  0.56000000  0.09550000  1.0
  O  O383  1  0.17050000  0.46660000  0.01450000  1.0
  O  O384  1  0.87650000  0.28230000  0.10440000  1.0
  O  O385  1  0.12120000  0.45210000  0.20810000  1.0
  O  O386  1  0.77197000  0.91103000  0.50983000  1.0
  O  O387  1  0.66457000  0.72013000  0.50223000  1.0
  O  O388  1  0.82787000  0.72103000  0.49673000  1.0
  O  O389  1  0.95457000  0.07063000  0.51253000  1.0
  O  O390  1  0.81267000  0.84573000  0.46813000  1.0
  O  O391  1  0.71877000  0.80523000  0.36283000  1.0
  O  O392  1  0.62027000  0.57923000  0.46703000  1.0
  O  O393  1  0.82137000  0.05833000  0.53933000  1.0
  O  O394  1  0.83527000  0.01433000  0.46703000  1.0
  O  O395  1  0.04357000  0.93953000  0.55893000  1.0
  O  O396  1  0.93677000  0.89333000  0.42883000  1.0
  O  O397  1  0.83717000  0.79993000  0.34783000  1.0
  O  O398  1  0.54317000  0.61563000  0.43773000  1.0
  O  O399  1  0.78787000  0.78543000  0.54143000  1.0
  O  O400  1  0.43863000  0.24437000  0.84317000  1.0
  O  O401  1  0.33123000  0.05347000  0.83557000  1.0
  O  O402  1  0.49453000  0.05437000  0.83007000  1.0
  O  O403  1  0.62123000  0.40397000  0.84587000  1.0
  O  O404  1  0.47933000  0.17907000  0.80147000  1.0
  O  O405  1  0.38543000  0.13857000  0.69617000  1.0
  O  O406  1  0.28693000  0.91257000  0.80037000  1.0
  O  O407  1  0.48803000  0.39167000  0.87267000  1.0
  O  O408  1  0.50193000  0.34767000  0.80037000  1.0
  O  O409  1  0.71023000  0.27287000  0.89227000  1.0
  O  O410  1  0.60343000  0.22667000  0.76217000  1.0
  O  O411  1  0.50383000  0.13327000  0.68117000  1.0
  O  O412  1  0.20983000  0.94897000  0.77107000  1.0
  O  O413  1  0.45453000  0.11877000  0.87477000  1.0
  O  O414  1  0.47240000  0.57770000  0.67650000  1.0
  O  O415  1  0.38890000  0.38680000  0.66890000  1.0
  O  O416  1  0.22650000  0.38770000  0.66340000  1.0
  O  O417  1  0.44940000  0.73730000  0.67920000  1.0
  O  O418  1  0.36640000  0.51240000  0.63480000  1.0
  O  O419  1  0.41980000  0.47190000  0.52950000  1.0
  O  O420  1  0.29230000  0.24590000  0.63370000  1.0
  O  O421  1  0.57030000  0.72500000  0.70600000  1.0
  O  O422  1  0.51240000  0.68100000  0.63370000  1.0
  O  O423  1  0.22930000  0.60620000  0.72560000  1.0
  O  O424  1  0.28990000  0.56000000  0.59550000  1.0
  O  O425  1  0.29610000  0.46660000  0.51450000  1.0
  O  O426  1  0.40580000  0.28230000  0.60440000  1.0
  O  O427  1  0.33090000  0.45210000  0.70810000  1.0
  O  O428  1  0.13907000  0.91103000  0.00983000  1.0
  O  O429  1  0.05557000  0.72013000  0.00223000  1.0
  O  O430  1  0.89317000  0.72103000  0.99673000  1.0
  O  O431  1  0.11607000  0.07063000  0.01253000  1.0
  O  O432  1  0.03307000  0.84573000  0.96813000  1.0
  O  O433  1  0.08647000  0.80523000  0.86283000  1.0
  O  O434  1  0.95897000  0.57923000  0.96703000  1.0
  O  O435  1  0.23697000  0.05833000  0.03933000  1.0
  O  O436  1  0.17907000  0.01433000  0.96703000  1.0
  O  O437  1  0.89597000  0.93953000  0.05893000  1.0
  O  O438  1  0.95657000  0.89333000  0.92883000  1.0
  O  O439  1  0.96277000  0.79993000  0.84783000  1.0
  O  O440  1  0.07247000  0.61563000  0.93773000  1.0
  O  O441  1  0.99757000  0.78543000  0.04143000  1.0
  O  O442  1  0.80573000  0.24437000  0.34317000  1.0
  O  O443  1  0.72223000  0.05347000  0.33557000  1.0
  O  O444  1  0.55983000  0.05437000  0.33007000  1.0
  O  O445  1  0.78273000  0.40397000  0.34587000  1.0
  O  O446  1  0.69973000  0.17907000  0.30147000  1.0
  O  O447  1  0.75313000  0.13857000  0.19617000  1.0
  O  O448  1  0.62563000  0.91257000  0.30037000  1.0
  O  O449  1  0.90363000  0.39167000  0.37267000  1.0
  O  O450  1  0.84573000  0.34767000  0.30037000  1.0
  O  O451  1  0.56263000  0.27287000  0.39227000  1.0
  O  O452  1  0.62323000  0.22667000  0.26217000  1.0
  O  O453  1  0.62943000  0.13327000  0.18117000  1.0
  O  O454  1  0.73913000  0.94897000  0.27107000  1.0
  O  O455  1  0.66423000  0.11877000  0.37477000  1.0
  O  O456  1  0.10530000  0.52760000  0.67650000  1.0
  O  O457  1  0.99790000  0.61110000  0.66890000  1.0
  O  O458  1  0.16120000  0.77350000  0.66340000  1.0
  O  O459  1  0.28790000  0.55060000  0.67920000  1.0
  O  O460  1  0.14600000  0.63360000  0.63480000  1.0
  O  O461  1  0.05210000  0.58020000  0.52950000  1.0
  O  O462  1  0.95360000  0.70770000  0.63370000  1.0
  O  O463  1  0.15470000  0.42970000  0.70600000  1.0
  O  O464  1  0.16860000  0.48760000  0.63370000  1.0
  O  O465  1  0.37690000  0.77070000  0.72560000  1.0
  O  O466  1  0.27010000  0.71010000  0.59550000  1.0
  O  O467  1  0.17050000  0.70390000  0.51450000  1.0
  O  O468  1  0.87650000  0.59420000  0.60440000  1.0
  O  O469  1  0.12120000  0.66910000  0.70810000  1.0
  O  O470  1  0.77197000  0.86093000  0.00983000  1.0
  O  O471  1  0.66457000  0.94443000  0.00223000  1.0
  O  O472  1  0.82787000  0.10683000  0.99673000  1.0
  O  O473  1  0.95457000  0.88393000  0.01253000  1.0
  O  O474  1  0.81267000  0.96693000  0.96813000  1.0
  O  O475  1  0.71877000  0.91353000  0.86283000  1.0
  O  O476  1  0.62027000  0.04103000  0.96703000  1.0
  O  O477  1  0.82137000  0.76303000  0.03933000  1.0
  O  O478  1  0.83527000  0.82093000  0.96703000  1.0
  O  O479  1  0.04357000  0.10403000  0.05893000  1.0
  O  O480  1  0.93677000  0.04343000  0.92883000  1.0
  O  O481  1  0.83717000  0.03723000  0.84783000  1.0
  O  O482  1  0.54317000  0.92753000  0.93773000  1.0
  O  O483  1  0.78787000  0.00243000  0.04143000  1.0
  O  O484  1  0.43863000  0.19427000  0.34317000  1.0
  O  O485  1  0.33123000  0.27777000  0.33557000  1.0
  O  O486  1  0.49453000  0.44017000  0.33007000  1.0
  O  O487  1  0.62123000  0.21727000  0.34587000  1.0
  O  O488  1  0.47933000  0.30027000  0.30147000  1.0
  O  O489  1  0.38543000  0.24687000  0.19617000  1.0
  O  O490  1  0.28693000  0.37437000  0.30037000  1.0
  O  O491  1  0.48803000  0.09637000  0.37267000  1.0
  O  O492  1  0.50193000  0.15427000  0.30037000  1.0
  O  O493  1  0.71023000  0.43737000  0.39227000  1.0
  O  O494  1  0.60343000  0.37677000  0.26217000  1.0
  O  O495  1  0.50383000  0.37057000  0.18117000  1.0
  O  O496  1  0.20983000  0.26087000  0.27107000  1.0
  O  O497  1  0.45453000  0.33577000  0.37477000  1.0
  O  O498  1  0.42230000  0.89470000  0.67650000  1.0
  O  O499  1  0.61320000  0.00210000  0.66890000  1.0
  O  O500  1  0.61230000  0.83880000  0.66340000  1.0
  O  O501  1  0.26270000  0.71210000  0.67920000  1.0
  O  O502  1  0.48760000  0.85400000  0.63480000  1.0
  O  O503  1  0.52810000  0.94790000  0.52950000  1.0
  O  O504  1  0.75410000  0.04640000  0.63370000  1.0
  O  O505  1  0.27500000  0.84530000  0.70600000  1.0
  O  O506  1  0.31900000  0.83140000  0.63370000  1.0
  O  O507  1  0.39380000  0.62310000  0.72560000  1.0
  O  O508  1  0.44000000  0.72990000  0.59550000  1.0
  O  O509  1  0.53340000  0.82950000  0.51450000  1.0
  O  O510  1  0.71770000  0.12350000  0.60440000  1.0
  O  O511  1  0.54790000  0.87880000  0.70810000  1.0
  O  O512  1  0.08897000  0.22803000  0.00983000  1.0
  O  O513  1  0.27987000  0.33543000  0.00223000  1.0
  O  O514  1  0.27897000  0.17213000  0.99673000  1.0
  O  O515  1  0.92937000  0.04543000  0.01253000  1.0
  O  O516  1  0.15427000  0.18733000  0.96813000  1.0
  O  O517  1  0.19477000  0.28123000  0.86283000  1.0
  O  O518  1  0.42077000  0.37973000  0.96703000  1.0
  O  O519  1  0.94167000  0.17863000  0.03933000  1.0
  O  O520  1  0.98567000  0.16473000  0.96703000  1.0
  O  O521  1  0.06047000  0.95643000  0.05893000  1.0
  O  O522  1  0.10667000  0.06323000  0.92883000  1.0
  O  O523  1  0.20007000  0.16283000  0.84783000  1.0
  O  O524  1  0.38437000  0.45683000  0.93773000  1.0
  O  O525  1  0.21457000  0.21213000  0.04143000  1.0
  O  O526  1  0.75563000  0.56137000  0.34317000  1.0
  O  O527  1  0.94653000  0.66877000  0.33557000  1.0
  O  O528  1  0.94563000  0.50547000  0.33007000  1.0
  O  O529  1  0.59603000  0.37877000  0.34587000  1.0
  O  O530  1  0.82093000  0.52067000  0.30147000  1.0
  O  O531  1  0.86143000  0.61457000  0.19617000  1.0
  O  O532  1  0.08743000  0.71307000  0.30037000  1.0
  O  O533  1  0.60833000  0.51197000  0.37267000  1.0
  O  O534  1  0.65233000  0.49807000  0.30037000  1.0
  O  O535  1  0.72713000  0.28977000  0.39227000  1.0
  O  O536  1  0.77333000  0.39657000  0.26217000  1.0
  O  O537  1  0.86673000  0.49617000  0.18117000  1.0
  O  O538  1  0.05103000  0.79017000  0.27107000  1.0
  O  O539  1  0.88123000  0.54547000  0.37477000  1.0
  O  O540  1  0.33333333  0.66666667  0.13370000  1.0
  O  O541  1  0.00000000  0.00000000  0.46703000  1.0
  O  O542  1  0.66666667  0.33333333  0.80037000  1.0
  O  O543  1  0.33333333  0.66666667  0.63370000  1.0
  O  O544  1  0.00000000  0.00000000  0.96703000  1.0
  O  O545  1  0.66666667  0.33333333  0.30037000  1.0
