# generated using pymatgen
data_AgH8(CN)2
_symmetry_space_group_name_H-M   'P 1'
_cell_length_a   10.29970000
_cell_length_b   10.61070000
_cell_length_c   6.24300000
_cell_angle_alpha   90.00000000
_cell_angle_beta   114.71300000
_cell_angle_gamma   90.00000000
_symmetry_Int_Tables_number   1
_chemical_formula_structural   AgH8(CN)2
_chemical_formula_sum   'Ag4 H32 C8 N8'
_cell_volume   619.79126398
_cell_formula_units_Z   4
loop_
 _symmetry_equiv_pos_site_id
 _symmetry_equiv_pos_as_xyz
  1  'x, y, z'
loop_
 _atom_site_type_symbol
 _atom_site_label
 _atom_site_symmetry_multiplicity
 _atom_site_fract_x
 _atom_site_fract_y
 _atom_site_fract_z
 _atom_site_occupancy
  Ag  Ag0  1  0.50000000  0.00000000  0.50000000  1.0
  Ag  Ag1  1  0.00000000  0.50000000  0.50000000  1.0
  Ag  Ag2  1  0.50000000  0.00000000  0.00000000  1.0
  Ag  Ag3  1  0.00000000  0.50000000  0.00000000  1.0
  H  H4  1  0.39930000  0.26550000  0.57120000  1.0
  H  H5  1  0.33190000  0.17370000  0.69750000  1.0
  H  H6  1  0.29590000  0.14420000  0.23840000  1.0
  H  H7  1  0.23580000  0.05830000  0.35830000  1.0
  H  H8  1  0.89930000  0.76550000  0.57120000  1.0
  H  H9  1  0.83190000  0.67370000  0.69750000  1.0
  H  H10  1  0.79590000  0.64420000  0.23840000  1.0
  H  H11  1  0.73580000  0.55830000  0.35830000  1.0
  H  H12  1  0.60070000  0.26550000  0.92880000  1.0
  H  H13  1  0.66810000  0.17370000  0.80250000  1.0
  H  H14  1  0.70410000  0.14420000  0.26160000  1.0
  H  H15  1  0.76420000  0.05830000  0.14170000  1.0
  H  H16  1  0.10070000  0.76550000  0.92880000  1.0
  H  H17  1  0.16810000  0.67370000  0.80250000  1.0
  H  H18  1  0.20410000  0.64420000  0.26160000  1.0
  H  H19  1  0.26420000  0.55830000  0.14170000  1.0
  H  H20  1  0.60070000  0.73450000  0.42880000  1.0
  H  H21  1  0.66810000  0.82630000  0.30250000  1.0
  H  H22  1  0.70410000  0.85580000  0.76160000  1.0
  H  H23  1  0.76420000  0.94170000  0.64170000  1.0
  H  H24  1  0.10070000  0.23450000  0.42880000  1.0
  H  H25  1  0.16810000  0.32630000  0.30250000  1.0
  H  H26  1  0.20410000  0.35580000  0.76160000  1.0
  H  H27  1  0.26420000  0.44170000  0.64170000  1.0
  H  H28  1  0.39930000  0.73450000  0.07120000  1.0
  H  H29  1  0.33190000  0.82630000  0.19750000  1.0
  H  H30  1  0.29590000  0.85580000  0.73840000  1.0
  H  H31  1  0.23580000  0.94170000  0.85830000  1.0
  H  H32  1  0.89930000  0.23450000  0.07120000  1.0
  H  H33  1  0.83190000  0.32630000  0.19750000  1.0
  H  H34  1  0.79590000  0.35580000  0.73840000  1.0
  H  H35  1  0.73580000  0.44170000  0.85830000  1.0
  C  C36  1  0.31740000  0.21090000  0.54550000  1.0
  C  C37  1  0.81740000  0.71090000  0.54550000  1.0
  C  C38  1  0.68260000  0.21090000  0.95450000  1.0
  C  C39  1  0.18260000  0.71090000  0.95450000  1.0
  C  C40  1  0.68260000  0.78910000  0.45450000  1.0
  C  C41  1  0.18260000  0.28910000  0.45450000  1.0
  C  C42  1  0.31740000  0.78910000  0.04550000  1.0
  C  C43  1  0.81740000  0.28910000  0.04550000  1.0
  N  N44  1  0.31120000  0.10950000  0.38030000  1.0
  N  N45  1  0.81120000  0.60950000  0.38030000  1.0
  N  N46  1  0.68880000  0.10950000  0.11970000  1.0
  N  N47  1  0.18880000  0.60950000  0.11970000  1.0
  N  N48  1  0.68880000  0.89050000  0.61970000  1.0
  N  N49  1  0.18880000  0.39050000  0.61970000  1.0
  N  N50  1  0.31120000  0.89050000  0.88030000  1.0
  N  N51  1  0.81120000  0.39050000  0.88030000  1.0
