# generated using pymatgen
data_AgH8(CN)2
_symmetry_space_group_name_H-M   'P 1'
_cell_length_a   10.45100000
_cell_length_b   10.51000000
_cell_length_c   6.26800000
_cell_angle_alpha   90.00000000
_cell_angle_beta   115.08000000
_cell_angle_gamma   90.00000000
_symmetry_Int_Tables_number   1
_chemical_formula_structural   AgH8(CN)2
_chemical_formula_sum   'Ag4 H32 C8 N8'
_cell_volume   623.56536273
_cell_formula_units_Z   4
loop_
 _symmetry_equiv_pos_site_id
 _symmetry_equiv_pos_as_xyz
  1  'x, y, z'
loop_
 _atom_site_type_symbol
 _atom_site_label
 _atom_site_symmetry_multiplicity
 _atom_site_fract_x
 _atom_site_fract_y
 _atom_site_fract_z
 _atom_site_occupancy
  Ag  Ag0  1  0.50000000  0.00000000  0.50000000  1.0
  Ag  Ag1  1  0.00000000  0.50000000  0.50000000  1.0
  Ag  Ag2  1  0.50000000  0.00000000  0.00000000  1.0
  Ag  Ag3  1  0.00000000  0.50000000  0.00000000  1.0
  H  H4  1  0.39600000  0.26110000  0.58010000  1.0
  H  H5  1  0.32220000  0.16890000  0.68920000  1.0
  H  H6  1  0.29630000  0.14470000  0.24090000  1.0
  H  H7  1  0.23810000  0.05600000  0.35440000  1.0
  H  H8  1  0.89600000  0.76110000  0.58010000  1.0
  H  H9  1  0.82220000  0.66890000  0.68920000  1.0
  H  H10  1  0.79630000  0.64470000  0.24090000  1.0
  H  H11  1  0.73810000  0.55600000  0.35440000  1.0
  H  H12  1  0.60400000  0.26110000  0.91990000  1.0
  H  H13  1  0.67780000  0.16890000  0.81080000  1.0
  H  H14  1  0.70370000  0.14470000  0.25910000  1.0
  H  H15  1  0.76190000  0.05600000  0.14560000  1.0
  H  H16  1  0.10400000  0.76110000  0.91990000  1.0
  H  H17  1  0.17780000  0.66890000  0.81080000  1.0
  H  H18  1  0.20370000  0.64470000  0.25910000  1.0
  H  H19  1  0.26190000  0.55600000  0.14560000  1.0
  H  H20  1  0.60400000  0.73890000  0.41990000  1.0
  H  H21  1  0.67780000  0.83110000  0.31080000  1.0
  H  H22  1  0.70370000  0.85530000  0.75910000  1.0
  H  H23  1  0.76190000  0.94400000  0.64560000  1.0
  H  H24  1  0.10400000  0.23890000  0.41990000  1.0
  H  H25  1  0.17780000  0.33110000  0.31080000  1.0
  H  H26  1  0.20370000  0.35530000  0.75910000  1.0
  H  H27  1  0.26190000  0.44400000  0.64560000  1.0
  H  H28  1  0.39600000  0.73890000  0.08010000  1.0
  H  H29  1  0.32220000  0.83110000  0.18920000  1.0
  H  H30  1  0.29630000  0.85530000  0.74090000  1.0
  H  H31  1  0.23810000  0.94400000  0.85440000  1.0
  H  H32  1  0.89600000  0.23890000  0.08010000  1.0
  H  H33  1  0.82220000  0.33110000  0.18920000  1.0
  H  H34  1  0.79630000  0.35530000  0.74090000  1.0
  H  H35  1  0.73810000  0.44400000  0.85440000  1.0
  C  C36  1  0.31300000  0.20850000  0.54400000  1.0
  C  C37  1  0.81300000  0.70850000  0.54400000  1.0
  C  C38  1  0.68700000  0.20850000  0.95600000  1.0
  C  C39  1  0.18700000  0.70850000  0.95600000  1.0
  C  C40  1  0.68700000  0.79150000  0.45600000  1.0
  C  C41  1  0.18700000  0.29150000  0.45600000  1.0
  C  C42  1  0.31300000  0.79150000  0.04400000  1.0
  C  C43  1  0.81300000  0.29150000  0.04400000  1.0
  N  N44  1  0.31110000  0.10870000  0.37960000  1.0
  N  N45  1  0.81110000  0.60870000  0.37960000  1.0
  N  N46  1  0.68890000  0.10870000  0.12040000  1.0
  N  N47  1  0.18890000  0.60870000  0.12040000  1.0
  N  N48  1  0.68890000  0.89130000  0.62040000  1.0
  N  N49  1  0.18890000  0.39130000  0.62040000  1.0
  N  N50  1  0.31110000  0.89130000  0.87960000  1.0
  N  N51  1  0.81110000  0.39130000  0.87960000  1.0
