# generated using pymatgen
data_AgH8(CN)2
_symmetry_space_group_name_H-M   'P 1'
_cell_length_a   10.44020000
_cell_length_b   10.51300000
_cell_length_c   6.30210000
_cell_angle_alpha   90.00000000
_cell_angle_beta   115.21700000
_cell_angle_gamma   90.00000000
_symmetry_Int_Tables_number   1
_chemical_formula_structural   AgH8(CN)2
_chemical_formula_sum   'Ag4 H32 C8 N8'
_cell_volume   625.78578018
_cell_formula_units_Z   4
loop_
 _symmetry_equiv_pos_site_id
 _symmetry_equiv_pos_as_xyz
  1  'x, y, z'
loop_
 _atom_site_type_symbol
 _atom_site_label
 _atom_site_symmetry_multiplicity
 _atom_site_fract_x
 _atom_site_fract_y
 _atom_site_fract_z
 _atom_site_occupancy
  Ag  Ag0  1  0.50000000  0.00000000  0.50000000  1.0
  Ag  Ag1  1  0.00000000  0.50000000  0.50000000  1.0
  Ag  Ag2  1  0.50000000  0.00000000  0.00000000  1.0
  Ag  Ag3  1  0.00000000  0.50000000  0.00000000  1.0
  H  H4  1  0.39700000  0.26510000  0.57870000  1.0
  H  H5  1  0.32760000  0.17120000  0.69250000  1.0
  H  H6  1  0.29970000  0.14710000  0.24440000  1.0
  H  H7  1  0.23960000  0.05870000  0.35480000  1.0
  H  H8  1  0.89700000  0.76510000  0.57870000  1.0
  H  H9  1  0.82760000  0.67120000  0.69250000  1.0
  H  H10  1  0.79970000  0.64710000  0.24440000  1.0
  H  H11  1  0.73960000  0.55870000  0.35480000  1.0
  H  H12  1  0.60300000  0.26510000  0.92130000  1.0
  H  H13  1  0.67240000  0.17120000  0.80750000  1.0
  H  H14  1  0.70030000  0.14710000  0.25560000  1.0
  H  H15  1  0.76040000  0.05870000  0.14520000  1.0
  H  H16  1  0.10300000  0.76510000  0.92130000  1.0
  H  H17  1  0.17240000  0.67120000  0.80750000  1.0
  H  H18  1  0.20030000  0.64710000  0.25560000  1.0
  H  H19  1  0.26040000  0.55870000  0.14520000  1.0
  H  H20  1  0.60300000  0.73490000  0.42130000  1.0
  H  H21  1  0.67240000  0.82880000  0.30750000  1.0
  H  H22  1  0.70030000  0.85290000  0.75560000  1.0
  H  H23  1  0.76040000  0.94130000  0.64520000  1.0
  H  H24  1  0.10300000  0.23490000  0.42130000  1.0
  H  H25  1  0.17240000  0.32880000  0.30750000  1.0
  H  H26  1  0.20030000  0.35290000  0.75560000  1.0
  H  H27  1  0.26040000  0.44130000  0.64520000  1.0
  H  H28  1  0.39700000  0.73490000  0.07870000  1.0
  H  H29  1  0.32760000  0.82880000  0.19250000  1.0
  H  H30  1  0.29970000  0.85290000  0.74440000  1.0
  H  H31  1  0.23960000  0.94130000  0.85480000  1.0
  H  H32  1  0.89700000  0.23490000  0.07870000  1.0
  H  H33  1  0.82760000  0.32880000  0.19250000  1.0
  H  H34  1  0.79970000  0.35290000  0.74440000  1.0
  H  H35  1  0.73960000  0.44130000  0.85480000  1.0
  C  C36  1  0.31600000  0.21030000  0.54600000  1.0
  C  C37  1  0.81600000  0.71030000  0.54600000  1.0
  C  C38  1  0.68400000  0.21030000  0.95400000  1.0
  C  C39  1  0.18400000  0.71030000  0.95400000  1.0
  C  C40  1  0.68400000  0.78970000  0.45400000  1.0
  C  C41  1  0.18400000  0.28970000  0.45400000  1.0
  C  C42  1  0.31600000  0.78970000  0.04600000  1.0
  C  C43  1  0.81600000  0.28970000  0.04600000  1.0
  N  N44  1  0.31360000  0.11060000  0.38170000  1.0
  N  N45  1  0.81360000  0.61060000  0.38170000  1.0
  N  N46  1  0.68640000  0.11060000  0.11830000  1.0
  N  N47  1  0.18640000  0.61060000  0.11830000  1.0
  N  N48  1  0.68640000  0.88940000  0.61830000  1.0
  N  N49  1  0.18640000  0.38940000  0.61830000  1.0
  N  N50  1  0.31360000  0.88940000  0.88170000  1.0
  N  N51  1  0.81360000  0.38940000  0.88170000  1.0
