# generated using pymatgen
data_InH7C12O5
_symmetry_space_group_name_H-M   'P 1'
_cell_length_a   21.89300000
_cell_length_b   21.89300000
_cell_length_c   7.18120000
_cell_angle_alpha   90.00000000
_cell_angle_beta   90.00000000
_cell_angle_gamma   90.00000000
_symmetry_Int_Tables_number   1
_chemical_formula_structural   InH7C12O5
_chemical_formula_sum   'In8 H56 C96 O40'
_cell_volume   3441.97392796
_cell_formula_units_Z   8
loop_
 _symmetry_equiv_pos_site_id
 _symmetry_equiv_pos_as_xyz
  1  'x, y, z'
loop_
 _atom_site_type_symbol
 _atom_site_label
 _atom_site_symmetry_multiplicity
 _atom_site_fract_x
 _atom_site_fract_y
 _atom_site_fract_z
 _atom_site_occupancy
  In  In0  1  0.75000000  0.25000000  0.00000000  1.0
  In  In1  1  0.25000000  0.75000000  0.00000000  1.0
  In  In2  1  0.25000000  0.25000000  0.00000000  1.0
  In  In3  1  0.75000000  0.75000000  0.00000000  1.0
  In  In4  1  0.75000000  0.25000000  0.50000000  1.0
  In  In5  1  0.25000000  0.75000000  0.50000000  1.0
  In  In6  1  0.25000000  0.25000000  0.50000000  1.0
  In  In7  1  0.75000000  0.75000000  0.50000000  1.0
  H  H8  1  0.73360000  0.05330000  0.51150000  1.0
  H  H9  1  0.83550000  0.10480000  0.95880000  1.0
  H  H10  1  0.86730000  0.05270000  0.69440000  1.0
  H  H11  1  0.81650000  0.68350000  0.25450000  1.0
  H  H12  1  0.26640000  0.94670000  0.51150000  1.0
  H  H13  1  0.16450000  0.89520000  0.95880000  1.0
  H  H14  1  0.13270000  0.94730000  0.69440000  1.0
  H  H15  1  0.44670000  0.23360000  0.51150000  1.0
  H  H16  1  0.39520000  0.33550000  0.95880000  1.0
  H  H17  1  0.44730000  0.36730000  0.69440000  1.0
  H  H18  1  0.81650000  0.31650000  0.25450000  1.0
  H  H19  1  0.55330000  0.76640000  0.51150000  1.0
  H  H20  1  0.60480000  0.66450000  0.95880000  1.0
  H  H21  1  0.55270000  0.63270000  0.69440000  1.0
  H  H22  1  0.18350000  0.68350000  0.25450000  1.0
  H  H23  1  0.76640000  0.55330000  0.48850000  1.0
  H  H24  1  0.66450000  0.60480000  0.04120000  1.0
  H  H25  1  0.63270000  0.55270000  0.30560000  1.0
  H  H26  1  0.23360000  0.44670000  0.48850000  1.0
  H  H27  1  0.33550000  0.39520000  0.04120000  1.0
  H  H28  1  0.36730000  0.44730000  0.30560000  1.0
  H  H29  1  0.05330000  0.73360000  0.48850000  1.0
  H  H30  1  0.10480000  0.83550000  0.04120000  1.0
  H  H31  1  0.05270000  0.86730000  0.30560000  1.0
  H  H32  1  0.68350000  0.81650000  0.74550000  1.0
  H  H33  1  0.94670000  0.26640000  0.48850000  1.0
  H  H34  1  0.89520000  0.16450000  0.04120000  1.0
  H  H35  1  0.94730000  0.13270000  0.30560000  1.0
  H  H36  1  0.31650000  0.18350000  0.74550000  1.0
  H  H37  1  0.76640000  0.44670000  0.48850000  1.0
  H  H38  1  0.66450000  0.39520000  0.04120000  1.0
  H  H39  1  0.63270000  0.44730000  0.30560000  1.0
  H  H40  1  0.23360000  0.55330000  0.48850000  1.0
  H  H41  1  0.33550000  0.60480000  0.04120000  1.0
  H  H42  1  0.36730000  0.55270000  0.30560000  1.0
  H  H43  1  0.05330000  0.26640000  0.48850000  1.0
  H  H44  1  0.10480000  0.16450000  0.04120000  1.0
  H  H45  1  0.05270000  0.13270000  0.30560000  1.0
  H  H46  1  0.68350000  0.18350000  0.74550000  1.0
  H  H47  1  0.94670000  0.73360000  0.48850000  1.0
  H  H48  1  0.89520000  0.83550000  0.04120000  1.0
  H  H49  1  0.94730000  0.86730000  0.30560000  1.0
  H  H50  1  0.31650000  0.81650000  0.74550000  1.0
  H  H51  1  0.73360000  0.94670000  0.51150000  1.0
  H  H52  1  0.83550000  0.89520000  0.95880000  1.0
  H  H53  1  0.86730000  0.94730000  0.69440000  1.0
  H  H54  1  0.26640000  0.05330000  0.51150000  1.0
  H  H55  1  0.16450000  0.10480000  0.95880000  1.0
  H  H56  1  0.13270000  0.05270000  0.69440000  1.0
  H  H57  1  0.44670000  0.76640000  0.51150000  1.0
  H  H58  1  0.39520000  0.66450000  0.95880000  1.0
  H  H59  1  0.44730000  0.63270000  0.69440000  1.0
  H  H60  1  0.55330000  0.23360000  0.51150000  1.0
  H  H61  1  0.60480000  0.33550000  0.95880000  1.0
  H  H62  1  0.55270000  0.36730000  0.69440000  1.0
  H  H63  1  0.18350000  0.31650000  0.25450000  1.0
  C  C64  1  0.76240000  0.13170000  0.26060000  1.0
  C  C65  1  0.77140000  0.06430000  0.25550000  1.0
  C  C66  1  0.74870000  0.03210000  0.40910000  1.0
  C  C67  1  0.79880000  0.03350000  0.10380000  1.0
  C  C68  1  0.82990000  0.06270000  0.95320000  1.0
  C  C69  1  0.85250000  0.03120000  0.79670000  1.0
  C  C70  1  0.23760000  0.86830000  0.26060000  1.0
  C  C71  1  0.22860000  0.93570000  0.25550000  1.0
  C  C72  1  0.25130000  0.96790000  0.40910000  1.0
  C  C73  1  0.20120000  0.96650000  0.10380000  1.0
  C  C74  1  0.17010000  0.93730000  0.95320000  1.0
  C  C75  1  0.14750000  0.96880000  0.79670000  1.0
  C  C76  1  0.36830000  0.26240000  0.26060000  1.0
  C  C77  1  0.43570000  0.27140000  0.25550000  1.0
  C  C78  1  0.46790000  0.24870000  0.40910000  1.0
  C  C79  1  0.46650000  0.29880000  0.10380000  1.0
  C  C80  1  0.43730000  0.32990000  0.95320000  1.0
  C  C81  1  0.46880000  0.35250000  0.79670000  1.0
  C  C82  1  0.63170000  0.73760000  0.26060000  1.0
  C  C83  1  0.56430000  0.72860000  0.25550000  1.0
  C  C84  1  0.53210000  0.75130000  0.40910000  1.0
  C  C85  1  0.53350000  0.70120000  0.10380000  1.0
  C  C86  1  0.56270000  0.67010000  0.95320000  1.0
  C  C87  1  0.53120000  0.64750000  0.79670000  1.0
  C  C88  1  0.73760000  0.63170000  0.73940000  1.0
  C  C89  1  0.72860000  0.56430000  0.74450000  1.0
  C  C90  1  0.75130000  0.53210000  0.59090000  1.0
  C  C91  1  0.70120000  0.53350000  0.89620000  1.0
  C  C92  1  0.67010000  0.56270000  0.04680000  1.0
  C  C93  1  0.64750000  0.53120000  0.20330000  1.0
  C  C94  1  0.26240000  0.36830000  0.73940000  1.0
  C  C95  1  0.27140000  0.43570000  0.74450000  1.0
  C  C96  1  0.24870000  0.46790000  0.59090000  1.0
  C  C97  1  0.29880000  0.46650000  0.89620000  1.0
  C  C98  1  0.32990000  0.43730000  0.04680000  1.0
  C  C99  1  0.35250000  0.46880000  0.20330000  1.0
  C  C100  1  0.13170000  0.76240000  0.73940000  1.0
  C  C101  1  0.06430000  0.77140000  0.74450000  1.0
  C  C102  1  0.03210000  0.74870000  0.59090000  1.0
  C  C103  1  0.03350000  0.79880000  0.89620000  1.0
  C  C104  1  0.06270000  0.82990000  0.04680000  1.0
  C  C105  1  0.03120000  0.85250000  0.20330000  1.0
  C  C106  1  0.86830000  0.23760000  0.73940000  1.0
  C  C107  1  0.93570000  0.22860000  0.74450000  1.0
  C  C108  1  0.96790000  0.25130000  0.59090000  1.0
  C  C109  1  0.96650000  0.20120000  0.89620000  1.0
  C  C110  1  0.93730000  0.17010000  0.04680000  1.0
  C  C111  1  0.96880000  0.14750000  0.20330000  1.0
  C  C112  1  0.73760000  0.36830000  0.73940000  1.0
  C  C113  1  0.72860000  0.43570000  0.74450000  1.0
  C  C114  1  0.75130000  0.46790000  0.59090000  1.0
  C  C115  1  0.70120000  0.46650000  0.89620000  1.0
  C  C116  1  0.67010000  0.43730000  0.04680000  1.0
  C  C117  1  0.64750000  0.46880000  0.20330000  1.0
  C  C118  1  0.26240000  0.63170000  0.73940000  1.0
  C  C119  1  0.27140000  0.56430000  0.74450000  1.0
  C  C120  1  0.24870000  0.53210000  0.59090000  1.0
  C  C121  1  0.29880000  0.53350000  0.89620000  1.0
  C  C122  1  0.32990000  0.56270000  0.04680000  1.0
  C  C123  1  0.35250000  0.53120000  0.20330000  1.0
  C  C124  1  0.13170000  0.23760000  0.73940000  1.0
  C  C125  1  0.06430000  0.22860000  0.74450000  1.0
  C  C126  1  0.03210000  0.25130000  0.59090000  1.0
  C  C127  1  0.03350000  0.20120000  0.89620000  1.0
  C  C128  1  0.06270000  0.17010000  0.04680000  1.0
  C  C129  1  0.03120000  0.14750000  0.20330000  1.0
  C  C130  1  0.86830000  0.76240000  0.73940000  1.0
  C  C131  1  0.93570000  0.77140000  0.74450000  1.0
  C  C132  1  0.96790000  0.74870000  0.59090000  1.0
  C  C133  1  0.96650000  0.79880000  0.89620000  1.0
  C  C134  1  0.93730000  0.82990000  0.04680000  1.0
  C  C135  1  0.96880000  0.85250000  0.20330000  1.0
  C  C136  1  0.76240000  0.86830000  0.26060000  1.0
  C  C137  1  0.77140000  0.93570000  0.25550000  1.0
  C  C138  1  0.74870000  0.96790000  0.40910000  1.0
  C  C139  1  0.79880000  0.96650000  0.10380000  1.0
  C  C140  1  0.82990000  0.93730000  0.95320000  1.0
  C  C141  1  0.85250000  0.96880000  0.79670000  1.0
  C  C142  1  0.23760000  0.13170000  0.26060000  1.0
  C  C143  1  0.22860000  0.06430000  0.25550000  1.0
  C  C144  1  0.25130000  0.03210000  0.40910000  1.0
  C  C145  1  0.20120000  0.03350000  0.10380000  1.0
  C  C146  1  0.17010000  0.06270000  0.95320000  1.0
  C  C147  1  0.14750000  0.03120000  0.79670000  1.0
  C  C148  1  0.36830000  0.73760000  0.26060000  1.0
  C  C149  1  0.43570000  0.72860000  0.25550000  1.0
  C  C150  1  0.46790000  0.75130000  0.40910000  1.0
  C  C151  1  0.46650000  0.70120000  0.10380000  1.0
  C  C152  1  0.43730000  0.67010000  0.95320000  1.0
  C  C153  1  0.46880000  0.64750000  0.79670000  1.0
  C  C154  1  0.63170000  0.26240000  0.26060000  1.0
  C  C155  1  0.56430000  0.27140000  0.25550000  1.0
  C  C156  1  0.53210000  0.24870000  0.40910000  1.0
  C  C157  1  0.53350000  0.29880000  0.10380000  1.0
  C  C158  1  0.56270000  0.32990000  0.95320000  1.0
  C  C159  1  0.53120000  0.35250000  0.79670000  1.0
  O  O160  1  0.75770000  0.15740000  0.40540000  1.0
  O  O161  1  0.75950000  0.15740000  0.10340000  1.0
  O  O162  1  0.24230000  0.84260000  0.40540000  1.0
  O  O163  1  0.24050000  0.84260000  0.10340000  1.0
  O  O164  1  0.34260000  0.25770000  0.40540000  1.0
  O  O165  1  0.34260000  0.25950000  0.10340000  1.0
  O  O166  1  0.65740000  0.74230000  0.40540000  1.0
  O  O167  1  0.65740000  0.74050000  0.10340000  1.0
  O  O168  1  0.74230000  0.65740000  0.59460000  1.0
  O  O169  1  0.74050000  0.65740000  0.89660000  1.0
  O  O170  1  0.25770000  0.34260000  0.59460000  1.0
  O  O171  1  0.25950000  0.34260000  0.89660000  1.0
  O  O172  1  0.15740000  0.75770000  0.59460000  1.0
  O  O173  1  0.15740000  0.75950000  0.89660000  1.0
  O  O174  1  0.84260000  0.24230000  0.59460000  1.0
  O  O175  1  0.84260000  0.24050000  0.89660000  1.0
  O  O176  1  0.74230000  0.34260000  0.59460000  1.0
  O  O177  1  0.74050000  0.34260000  0.89660000  1.0
  O  O178  1  0.25770000  0.65740000  0.59460000  1.0
  O  O179  1  0.25950000  0.65740000  0.89660000  1.0
  O  O180  1  0.15740000  0.24230000  0.59460000  1.0
  O  O181  1  0.15740000  0.24050000  0.89660000  1.0
  O  O182  1  0.84260000  0.75770000  0.59460000  1.0
  O  O183  1  0.84260000  0.75950000  0.89660000  1.0
  O  O184  1  0.75770000  0.84260000  0.40540000  1.0
  O  O185  1  0.75950000  0.84260000  0.10340000  1.0
  O  O186  1  0.24230000  0.15740000  0.40540000  1.0
  O  O187  1  0.24050000  0.15740000  0.10340000  1.0
  O  O188  1  0.34260000  0.74230000  0.40540000  1.0
  O  O189  1  0.34260000  0.74050000  0.10340000  1.0
  O  O190  1  0.65740000  0.25770000  0.40540000  1.0
  O  O191  1  0.65740000  0.25950000  0.10340000  1.0
  O  O192  1  0.78420000  0.28420000  0.25450000  1.0
  O  O193  1  0.21580000  0.71580000  0.25450000  1.0
  O  O194  1  0.21580000  0.28420000  0.25450000  1.0
  O  O195  1  0.78420000  0.71580000  0.25450000  1.0
  O  O196  1  0.71580000  0.78420000  0.74550000  1.0
  O  O197  1  0.28420000  0.21580000  0.74550000  1.0
  O  O198  1  0.28420000  0.78420000  0.74550000  1.0
  O  O199  1  0.71580000  0.21580000  0.74550000  1.0
