# generated using pymatgen
data_Ag7H16(C6N5)4
_symmetry_space_group_name_H-M   'P 1'
_cell_length_a   10.19120000
_cell_length_b   13.70080000
_cell_length_c   24.47100000
_cell_angle_alpha   81.03020000
_cell_angle_beta   77.98130000
_cell_angle_gamma   68.16600000
_symmetry_Int_Tables_number   1
_chemical_formula_structural   Ag7H16(C6N5)4
_chemical_formula_sum   'Ag14 H32 C48 N40'
_cell_volume   3090.58869821
_cell_formula_units_Z   2
loop_
 _symmetry_equiv_pos_site_id
 _symmetry_equiv_pos_as_xyz
  1  'x, y, z'
loop_
 _atom_site_type_symbol
 _atom_site_label
 _atom_site_symmetry_multiplicity
 _atom_site_fract_x
 _atom_site_fract_y
 _atom_site_fract_z
 _atom_site_occupancy
  Ag  Ag0  1  0.56896000  0.05147000  0.34645000  1.0
  Ag  Ag1  1  0.94423000  0.56600000  0.12172000  1.0
  Ag  Ag2  1  0.29174000  0.96758000  0.83716000  1.0
  Ag  Ag3  1  0.20319000  0.00955000  0.39029000  1.0
  Ag  Ag4  1  0.39697000  0.50955000  0.89029000  1.0
  Ag  Ag5  1  0.03567000  0.26855000  0.82717000  1.0
  Ag  Ag6  1  0.86861000  0.76855000  0.32717000  1.0
  Ag  Ag7  1  0.90352000  0.46758000  0.33716000  1.0
  Ag  Ag8  1  0.67884000  0.27261000  0.81437000  1.0
  Ag  Ag9  1  0.23418000  0.77261000  0.31437000  1.0
  Ag  Ag10  1  0.03312000  0.55147000  0.84645000  1.0
  Ag  Ag11  1  0.65739000  0.07083000  0.51247000  1.0
  Ag  Ag12  1  0.75931000  0.57083000  0.01247000  1.0
  Ag  Ag13  1  0.36805000  0.06600000  0.62172000  1.0
  H  H14  1  0.29330000  0.58270000  0.76850000  1.0
  H  H15  1  0.69940000  0.93880000  0.76200000  1.0
  H  H16  1  0.98450000  0.08820000  0.48180000  1.0
  H  H17  1  0.26880000  0.88170000  0.72610000  1.0
  H  H18  1  0.50290000  0.58120000  0.31680000  1.0
  H  H19  1  0.44550000  0.58820000  0.98180000  1.0
  H  H20  1  0.96010000  0.23290000  0.33810000  1.0
  H  H21  1  0.38390000  0.70550000  0.71370000  1.0
  H  H22  1  0.19690000  0.20550000  0.21370000  1.0
  H  H23  1  0.61240000  0.45580000  0.40360000  1.0
  H  H24  1  0.78350000  0.70110000  0.22390000  1.0
  H  H25  1  0.59010000  0.92480000  0.69500000  1.0
  H  H26  1  0.79010000  0.42480000  0.19500000  1.0
  H  H27  1  0.35550000  0.08270000  0.26850000  1.0
  H  H28  1  0.40570000  0.30980000  0.33160000  1.0
  H  H29  1  0.76000000  0.02410000  0.62390000  1.0
  H  H30  1  0.59910000  0.08120000  0.81680000  1.0
  H  H31  1  0.46890000  0.73290000  0.83810000  1.0
  H  H32  1  0.17810000  0.97660000  0.61940000  1.0
  H  H33  1  0.52820000  0.95580000  0.90360000  1.0
  H  H34  1  0.95290000  0.80980000  0.83160000  1.0
  H  H35  1  0.59980000  0.43880000  0.26200000  1.0
  H  H36  1  0.49700000  0.33530000  0.43290000  1.0
  H  H37  1  0.12340000  0.38170000  0.22610000  1.0
  H  H38  1  0.39910000  0.48060000  0.16900000  1.0
  H  H39  1  0.73480000  0.83530000  0.93290000  1.0
  H  H40  1  0.22590000  0.47660000  0.11940000  1.0
  H  H41  1  0.95130000  0.98060000  0.66900000  1.0
  H  H42  1  0.59200000  0.52410000  0.12390000  1.0
  H  H43  1  0.61570000  0.16220000  0.41060000  1.0
  H  H44  1  0.81150000  0.66220000  0.91060000  1.0
  H  H45  1  0.29150000  0.20110000  0.72390000  1.0
  C  C46  1  0.52230000  0.52760000  0.10380000  1.0
  C  C47  1  0.55800000  0.88570000  0.89590000  1.0
  C  C48  1  0.37460000  0.14750000  0.73250000  1.0
  C  C49  1  0.25530000  0.36400000  0.28140000  1.0
  C  C50  1  0.69320000  0.56890000  0.86090000  1.0
  C  C51  1  0.63870000  0.49200000  0.25500000  1.0
  C  C52  1  0.66260000  0.21050000  0.40090000  1.0
  C  C53  1  0.52240000  0.75360000  0.85740000  1.0
  C  C54  1  0.43020000  0.15750000  0.77730000  1.0
  C  C55  1  0.09930000  0.86400000  0.78140000  1.0
  C  C56  1  0.68220000  0.81420000  0.91340000  1.0
  C  C57  1  0.59020000  0.31420000  0.41340000  1.0
  C  C58  1  0.02590000  0.97710000  0.79230000  1.0
  C  C59  1  0.43270000  0.56780000  0.02000000  1.0
  C  C60  1  0.20470000  0.47710000  0.29230000  1.0
  C  C61  1  0.80300000  0.17820000  0.37420000  1.0
  C  C62  1  0.23390000  0.22820000  0.23900000  1.0
  C  C63  1  0.66040000  0.38570000  0.39590000  1.0
  C  C64  1  0.55200000  0.98510000  0.71450000  1.0
  C  C65  1  0.74840000  0.48510000  0.21450000  1.0
  C  C66  1  0.55450000  0.07810000  0.78790000  1.0
  C  C67  1  0.74540000  0.64750000  0.23250000  1.0
  C  C68  1  0.29890000  0.72820000  0.73900000  1.0
  C  C69  1  0.64460000  0.67820000  0.87420000  1.0
  C  C70  1  0.72600000  0.71050000  0.90090000  1.0
  C  C71  1  0.04270000  0.78830000  0.80910000  1.0
  C  C72  1  0.63500000  0.65750000  0.27730000  1.0
  C  C73  1  0.37120000  0.25330000  0.80950000  1.0
  C  C74  1  0.29860000  0.50240000  0.10240000  1.0
  C  C75  1  0.19260000  0.33220000  0.24540000  1.0
  C  C76  1  0.97950000  0.06780000  0.52000000  1.0
  C  C77  1  0.87700000  0.06890000  0.36090000  1.0
  C  C78  1  0.61430000  0.99200000  0.75500000  1.0
  C  C79  1  0.56600000  0.75330000  0.30950000  1.0
  C  C80  1  0.24120000  0.65430000  0.77090000  1.0
  C  C81  1  0.30950000  0.54820000  0.04380000  1.0
  C  C82  1  0.86660000  0.25360000  0.35740000  1.0
  C  C83  1  0.57950000  0.57810000  0.28790000  1.0
  C  C84  1  0.22980000  0.83220000  0.74540000  1.0
  C  C85  1  0.33360000  0.15430000  0.27090000  1.0
  C  C86  1  0.40630000  0.50070000  0.13070000  1.0
  C  C87  1  0.09850000  0.04820000  0.54380000  1.0
  C  C88  1  0.09660000  0.00240000  0.60240000  1.0
  C  C89  1  0.96230000  0.00070000  0.63070000  1.0
  C  C90  1  0.84630000  0.02760000  0.60380000  1.0
  C  C91  1  0.35990000  0.28830000  0.30910000  1.0
  C  C92  1  0.23920000  0.05390000  0.51350000  1.0
  C  C93  1  0.19340000  0.55390000  0.01350000  1.0
  N  N94  1  0.83190000  0.51380000  0.84900000  1.0
  N  N95  1  0.43220000  0.06520000  0.70040000  1.0
  N  N96  1  0.79960000  0.35610000  0.36750000  1.0
  N  N97  1  0.01550000  0.01510000  0.35610000  1.0
  N  N98  1  0.20960000  0.55610000  0.95870000  1.0
  N  N99  1  0.90590000  0.91860000  0.33700000  1.0
  N  N100  1  0.41510000  0.88710000  0.34670000  1.0
  N  N101  1  0.23310000  0.30040000  0.82380000  1.0
  N  N102  1  0.80530000  0.01380000  0.34900000  1.0
  N  N103  1  0.27560000  0.05610000  0.45870000  1.0
  N  N104  1  0.44600000  0.06340000  0.49600000  1.0
  N  N105  1  0.61330000  0.51510000  0.85610000  1.0
  N  N106  1  0.35110000  0.38710000  0.84670000  1.0
  N  N107  1  0.53590000  0.55890000  0.04870000  1.0
  N  N108  1  0.03350000  0.91580000  0.34140000  1.0
  N  N109  1  0.40600000  0.06490000  0.44610000  1.0
  N  N110  1  0.11530000  0.68330000  0.80430000  1.0
  N  N111  1  0.99430000  0.12940000  0.81300000  1.0
  N  N112  1  0.83850000  0.41860000  0.83700000  1.0
  N  N113  1  0.34070000  0.05740000  0.53680000  1.0
  N  N114  1  0.85650000  0.05890000  0.54870000  1.0
  N  N115  1  0.09430000  0.03310000  0.80630000  1.0
  N  N116  1  0.08300000  0.56490000  0.94610000  1.0
  N  N117  1  0.99460000  0.56340000  0.99600000  1.0
  N  N118  1  0.06330000  0.62940000  0.31300000  1.0
  N  N119  1  0.80220000  0.56520000  0.20040000  1.0
  N  N120  1  0.70930000  0.41580000  0.84140000  1.0
  N  N121  1  0.88920000  0.03360000  0.79000000  1.0
  N  N122  1  0.19350000  0.62890000  0.30390000  1.0
  N  N123  1  0.28720000  0.53360000  0.29000000  1.0
  N  N124  1  0.43010000  0.79950000  0.32170000  1.0
  N  N125  1  0.47680000  0.85610000  0.86750000  1.0
  N  N126  1  0.22310000  0.38650000  0.84830000  1.0
  N  N127  1  0.64270000  0.80040000  0.32380000  1.0
  N  N128  1  0.87370000  0.12890000  0.80390000  1.0
  N  N129  1  0.44870000  0.29950000  0.82170000  1.0
  N  N130  1  0.54210000  0.88650000  0.34830000  1.0
  N  N131  1  0.06510000  0.55740000  0.03680000  1.0
  N  N132  1  0.06630000  0.53310000  0.30630000  1.0
  N  N133  1  0.39710000  0.18330000  0.30430000  1.0
