# generated using pymatgen
data_V2P2H7C3O7
_symmetry_space_group_name_H-M   'P 1'
_cell_length_a   15.64030000
_cell_length_b   10.21120000
_cell_length_c   18.67950000
_cell_angle_alpha   90.00000000
_cell_angle_beta   105.48400000
_cell_angle_gamma   90.00000000
_symmetry_Int_Tables_number   1
_chemical_formula_structural   V2P2H7C3O7
_chemical_formula_sum   'V16 P16 H56 C24 O56'
_cell_volume   2874.95625062
_cell_formula_units_Z   8
loop_
 _symmetry_equiv_pos_site_id
 _symmetry_equiv_pos_as_xyz
  1  'x, y, z'
loop_
 _atom_site_type_symbol
 _atom_site_label
 _atom_site_symmetry_multiplicity
 _atom_site_fract_x
 _atom_site_fract_y
 _atom_site_fract_z
 _atom_site_occupancy
  V  V0  1  0.16504000  0.38063000  0.08450000  1.0
  V  V1  1  0.24827000  0.45311000  0.28748000  1.0
  V  V2  1  0.66504000  0.88063000  0.08450000  1.0
  V  V3  1  0.74827000  0.95311000  0.28748000  1.0
  V  V4  1  0.83496000  0.38063000  0.41550000  1.0
  V  V5  1  0.75173000  0.45311000  0.21252000  1.0
  V  V6  1  0.33496000  0.88063000  0.41550000  1.0
  V  V7  1  0.25173000  0.95311000  0.21252000  1.0
  V  V8  1  0.83496000  0.61937000  0.91550000  1.0
  V  V9  1  0.75173000  0.54689000  0.71252000  1.0
  V  V10  1  0.33496000  0.11937000  0.91550000  1.0
  V  V11  1  0.25173000  0.04689000  0.71252000  1.0
  V  V12  1  0.16504000  0.61937000  0.58450000  1.0
  V  V13  1  0.24827000  0.54689000  0.78748000  1.0
  V  V14  1  0.66504000  0.11937000  0.58450000  1.0
  V  V15  1  0.74827000  0.04689000  0.78748000  1.0
  P  P16  1  0.20739000  0.37992000  0.92125000  1.0
  P  P17  1  0.83587000  0.33230000  0.83719000  1.0
  P  P18  1  0.70739000  0.87992000  0.92125000  1.0
  P  P19  1  0.33587000  0.83230000  0.83719000  1.0
  P  P20  1  0.79261000  0.37992000  0.57875000  1.0
  P  P21  1  0.16413000  0.33230000  0.66281000  1.0
  P  P22  1  0.29261000  0.87992000  0.57875000  1.0
  P  P23  1  0.66413000  0.83230000  0.66281000  1.0
  P  P24  1  0.79261000  0.62008000  0.07875000  1.0
  P  P25  1  0.16413000  0.66770000  0.16281000  1.0
  P  P26  1  0.29261000  0.12008000  0.07875000  1.0
  P  P27  1  0.66413000  0.16770000  0.16281000  1.0
  P  P28  1  0.20739000  0.62008000  0.42125000  1.0
  P  P29  1  0.83587000  0.66770000  0.33719000  1.0
  P  P30  1  0.70739000  0.12008000  0.42125000  1.0
  P  P31  1  0.33587000  0.16770000  0.33719000  1.0
  H  H32  1  0.11360000  0.24270000  0.83780000  1.0
  H  H33  1  0.10990000  0.21010000  0.92050000  1.0
  H  H34  1  0.94820000  0.19770000  0.82240000  1.0
  H  H35  1  0.95240000  0.21150000  0.90830000  1.0
  H  H36  1  0.01310000  0.41200000  0.82670000  1.0
  H  H37  1  0.02340000  0.41510000  0.91440000  1.0
  H  H38  1  0.21700000  0.29000000  0.19600000  1.0
  H  H39  1  0.61360000  0.74270000  0.83780000  1.0
  H  H40  1  0.60990000  0.71010000  0.92050000  1.0
  H  H41  1  0.44820000  0.69770000  0.82240000  1.0
  H  H42  1  0.45240000  0.71150000  0.90830000  1.0
  H  H43  1  0.51310000  0.91200000  0.82670000  1.0
  H  H44  1  0.52340000  0.91510000  0.91440000  1.0
  H  H45  1  0.71700000  0.79000000  0.19600000  1.0
  H  H46  1  0.88640000  0.24270000  0.66220000  1.0
  H  H47  1  0.89010000  0.21010000  0.57950000  1.0
  H  H48  1  0.05180000  0.19770000  0.67760000  1.0
  H  H49  1  0.04760000  0.21150000  0.59170000  1.0
  H  H50  1  0.98690000  0.41200000  0.67330000  1.0
  H  H51  1  0.97660000  0.41510000  0.58560000  1.0
  H  H52  1  0.78300000  0.29000000  0.30400000  1.0
  H  H53  1  0.38640000  0.74270000  0.66220000  1.0
  H  H54  1  0.39010000  0.71010000  0.57950000  1.0
  H  H55  1  0.55180000  0.69770000  0.67760000  1.0
  H  H56  1  0.54760000  0.71150000  0.59170000  1.0
  H  H57  1  0.48690000  0.91200000  0.67330000  1.0
  H  H58  1  0.47660000  0.91510000  0.58560000  1.0
  H  H59  1  0.28300000  0.79000000  0.30400000  1.0
  H  H60  1  0.88640000  0.75730000  0.16220000  1.0
  H  H61  1  0.89010000  0.78990000  0.07950000  1.0
  H  H62  1  0.05180000  0.80230000  0.17760000  1.0
  H  H63  1  0.04760000  0.78850000  0.09170000  1.0
  H  H64  1  0.98690000  0.58800000  0.17330000  1.0
  H  H65  1  0.97660000  0.58490000  0.08560000  1.0
  H  H66  1  0.78300000  0.71000000  0.80400000  1.0
  H  H67  1  0.38640000  0.25730000  0.16220000  1.0
  H  H68  1  0.39010000  0.28990000  0.07950000  1.0
  H  H69  1  0.55180000  0.30230000  0.17760000  1.0
  H  H70  1  0.54760000  0.28850000  0.09170000  1.0
  H  H71  1  0.48690000  0.08800000  0.17330000  1.0
  H  H72  1  0.47660000  0.08490000  0.08560000  1.0
  H  H73  1  0.28300000  0.21000000  0.80400000  1.0
  H  H74  1  0.11360000  0.75730000  0.33780000  1.0
  H  H75  1  0.10990000  0.78990000  0.42050000  1.0
  H  H76  1  0.94820000  0.80230000  0.32240000  1.0
  H  H77  1  0.95240000  0.78850000  0.40830000  1.0
  H  H78  1  0.01310000  0.58800000  0.32670000  1.0
  H  H79  1  0.02340000  0.58490000  0.41440000  1.0
  H  H80  1  0.21700000  0.71000000  0.69600000  1.0
  H  H81  1  0.61360000  0.25730000  0.33780000  1.0
  H  H82  1  0.60990000  0.28990000  0.42050000  1.0
  H  H83  1  0.44820000  0.30230000  0.32240000  1.0
  H  H84  1  0.45240000  0.28850000  0.40830000  1.0
  H  H85  1  0.51310000  0.08800000  0.32670000  1.0
  H  H86  1  0.52340000  0.08490000  0.41440000  1.0
  H  H87  1  0.71700000  0.21000000  0.69600000  1.0
  C  C88  1  0.11000000  0.28240000  0.88530000  1.0
  C  C89  1  0.94470000  0.26120000  0.86150000  1.0
  C  C90  1  0.02180000  0.35690000  0.87160000  1.0
  C  C91  1  0.61000000  0.78240000  0.88530000  1.0
  C  C92  1  0.44470000  0.76120000  0.86150000  1.0
  C  C93  1  0.52180000  0.85690000  0.87160000  1.0
  C  C94  1  0.89000000  0.28240000  0.61470000  1.0
  C  C95  1  0.05530000  0.26120000  0.63850000  1.0
  C  C96  1  0.97820000  0.35690000  0.62840000  1.0
  C  C97  1  0.39000000  0.78240000  0.61470000  1.0
  C  C98  1  0.55530000  0.76120000  0.63850000  1.0
  C  C99  1  0.47820000  0.85690000  0.62840000  1.0
  C  C100  1  0.89000000  0.71760000  0.11470000  1.0
  C  C101  1  0.05530000  0.73880000  0.13850000  1.0
  C  C102  1  0.97820000  0.64310000  0.12840000  1.0
  C  C103  1  0.39000000  0.21760000  0.11470000  1.0
  C  C104  1  0.55530000  0.23880000  0.13850000  1.0
  C  C105  1  0.47820000  0.14310000  0.12840000  1.0
  C  C106  1  0.11000000  0.71760000  0.38530000  1.0
  C  C107  1  0.94470000  0.73880000  0.36150000  1.0
  C  C108  1  0.02180000  0.64310000  0.37160000  1.0
  C  C109  1  0.61000000  0.21760000  0.38530000  1.0
  C  C110  1  0.44470000  0.23880000  0.36150000  1.0
  C  C111  1  0.52180000  0.14310000  0.37160000  1.0
  O  O112  1  0.20740000  0.42730000  0.99893000  1.0
  O  O113  1  0.28866000  0.29860000  0.92129000  1.0
  O  O114  1  0.82840000  0.42880000  0.89797000  1.0
  O  O115  1  0.21170000  0.35710000  0.19244000  1.0
  O  O116  1  0.82420000  0.39850000  0.76186000  1.0
  O  O117  1  0.76885000  0.22230000  0.83434000  1.0
  O  O118  1  0.20363000  0.50340000  0.87359000  1.0
  O  O119  1  0.70740000  0.92730000  0.99893000  1.0
  O  O120  1  0.78866000  0.79860000  0.92129000  1.0
  O  O121  1  0.32840000  0.92880000  0.89797000  1.0
  O  O122  1  0.71170000  0.85710000  0.19244000  1.0
  O  O123  1  0.32420000  0.89850000  0.76186000  1.0
  O  O124  1  0.26885000  0.72230000  0.83434000  1.0
  O  O125  1  0.70363000  0.00340000  0.87359000  1.0
  O  O126  1  0.79260000  0.42730000  0.50107000  1.0
  O  O127  1  0.71134000  0.29860000  0.57871000  1.0
  O  O128  1  0.17160000  0.42880000  0.60203000  1.0
  O  O129  1  0.78830000  0.35710000  0.30756000  1.0
  O  O130  1  0.17580000  0.39850000  0.73814000  1.0
  O  O131  1  0.23115000  0.22230000  0.66566000  1.0
  O  O132  1  0.79637000  0.50340000  0.62641000  1.0
  O  O133  1  0.29260000  0.92730000  0.50107000  1.0
  O  O134  1  0.21134000  0.79860000  0.57871000  1.0
  O  O135  1  0.67160000  0.92880000  0.60203000  1.0
  O  O136  1  0.28830000  0.85710000  0.30756000  1.0
  O  O137  1  0.67580000  0.89850000  0.73814000  1.0
  O  O138  1  0.73115000  0.72230000  0.66566000  1.0
  O  O139  1  0.29637000  0.00340000  0.62641000  1.0
  O  O140  1  0.79260000  0.57270000  0.00107000  1.0
  O  O141  1  0.71134000  0.70140000  0.07871000  1.0
  O  O142  1  0.17160000  0.57120000  0.10203000  1.0
  O  O143  1  0.78830000  0.64290000  0.80756000  1.0
  O  O144  1  0.17580000  0.60150000  0.23814000  1.0
  O  O145  1  0.23115000  0.77770000  0.16566000  1.0
  O  O146  1  0.79637000  0.49660000  0.12641000  1.0
  O  O147  1  0.29260000  0.07270000  0.00107000  1.0
  O  O148  1  0.21134000  0.20140000  0.07871000  1.0
  O  O149  1  0.67160000  0.07120000  0.10203000  1.0
  O  O150  1  0.28830000  0.14290000  0.80756000  1.0
  O  O151  1  0.67580000  0.10150000  0.23814000  1.0
  O  O152  1  0.73115000  0.27770000  0.16566000  1.0
  O  O153  1  0.29637000  0.99660000  0.12641000  1.0
  O  O154  1  0.20740000  0.57270000  0.49893000  1.0
  O  O155  1  0.28866000  0.70140000  0.42129000  1.0
  O  O156  1  0.82840000  0.57120000  0.39797000  1.0
  O  O157  1  0.21170000  0.64290000  0.69244000  1.0
  O  O158  1  0.82420000  0.60150000  0.26186000  1.0
  O  O159  1  0.76885000  0.77770000  0.33434000  1.0
  O  O160  1  0.20363000  0.49660000  0.37359000  1.0
  O  O161  1  0.70740000  0.07270000  0.49893000  1.0
  O  O162  1  0.78866000  0.20140000  0.42129000  1.0
  O  O163  1  0.32840000  0.07120000  0.39797000  1.0
  O  O164  1  0.71170000  0.14290000  0.69244000  1.0
  O  O165  1  0.32420000  0.10150000  0.26186000  1.0
  O  O166  1  0.26885000  0.27770000  0.33434000  1.0
  O  O167  1  0.70363000  0.99660000  0.37359000  1.0
