# generated using pymatgen
data_V2P2H6C3O7
_symmetry_space_group_name_H-M   'P 1'
_cell_length_a   15.08770000
_cell_length_b   10.20270000
_cell_length_c   18.63760000
_cell_angle_alpha   90.00000000
_cell_angle_beta   102.52100000
_cell_angle_gamma   90.00000000
_symmetry_Int_Tables_number   1
_chemical_formula_structural   V2P2H6C3O7
_chemical_formula_sum   'V16 P16 H48 C24 O56'
_cell_volume   2800.74995315
_cell_formula_units_Z   8
loop_
 _symmetry_equiv_pos_site_id
 _symmetry_equiv_pos_as_xyz
  1  'x, y, z'
loop_
 _atom_site_type_symbol
 _atom_site_label
 _atom_site_symmetry_multiplicity
 _atom_site_fract_x
 _atom_site_fract_y
 _atom_site_fract_z
 _atom_site_occupancy
  V  V0  1  0.16060000  0.61538000  0.08485000  1.0
  V  V1  1  0.24829000  0.54620000  0.28319000  1.0
  V  V2  1  0.66060000  0.11538000  0.08485000  1.0
  V  V3  1  0.74829000  0.04620000  0.28319000  1.0
  V  V4  1  0.83940000  0.61538000  0.41515000  1.0
  V  V5  1  0.75171000  0.54620000  0.21681000  1.0
  V  V6  1  0.33940000  0.11538000  0.41515000  1.0
  V  V7  1  0.25171000  0.04620000  0.21681000  1.0
  V  V8  1  0.83940000  0.38462000  0.91515000  1.0
  V  V9  1  0.75171000  0.45380000  0.71681000  1.0
  V  V10  1  0.33940000  0.88462000  0.91515000  1.0
  V  V11  1  0.25171000  0.95380000  0.71681000  1.0
  V  V12  1  0.16060000  0.38462000  0.58485000  1.0
  V  V13  1  0.24829000  0.45380000  0.78319000  1.0
  V  V14  1  0.66060000  0.88462000  0.58485000  1.0
  V  V15  1  0.74829000  0.95380000  0.78319000  1.0
  P  P16  1  0.28632000  0.87848000  0.07721000  1.0
  P  P17  1  0.66411000  0.83098000  0.16562000  1.0
  P  P18  1  0.78632000  0.37848000  0.07721000  1.0
  P  P19  1  0.16411000  0.33098000  0.16562000  1.0
  P  P20  1  0.71368000  0.87848000  0.42279000  1.0
  P  P21  1  0.33589000  0.83098000  0.33438000  1.0
  P  P22  1  0.21368000  0.37848000  0.42279000  1.0
  P  P23  1  0.83589000  0.33098000  0.33438000  1.0
  P  P24  1  0.71368000  0.12152000  0.92279000  1.0
  P  P25  1  0.33589000  0.16902000  0.83438000  1.0
  P  P26  1  0.21368000  0.62152000  0.92279000  1.0
  P  P27  1  0.83589000  0.66902000  0.83438000  1.0
  P  P28  1  0.28632000  0.12152000  0.57721000  1.0
  P  P29  1  0.66411000  0.16902000  0.66562000  1.0
  P  P30  1  0.78632000  0.62152000  0.57721000  1.0
  P  P31  1  0.16411000  0.66902000  0.66562000  1.0
  H  H32  1  0.37620000  0.73440000  0.15680000  1.0
  H  H33  1  0.38710000  0.70920000  0.07450000  1.0
  H  H34  1  0.55050000  0.70160000  0.09870000  1.0
  H  H35  1  0.54700000  0.69900000  0.18370000  1.0
  H  H36  1  0.47660000  0.91070000  0.17070000  1.0
  H  H37  1  0.47790000  0.90940000  0.08500000  1.0
  H  H38  1  0.87620000  0.23440000  0.15680000  1.0
  H  H39  1  0.88710000  0.20920000  0.07450000  1.0
  H  H40  1  0.05050000  0.20160000  0.09870000  1.0
  H  H41  1  0.04700000  0.19900000  0.18370000  1.0
  H  H42  1  0.97660000  0.41070000  0.17070000  1.0
  H  H43  1  0.97790000  0.40940000  0.08500000  1.0
  H  H44  1  0.62380000  0.73440000  0.34320000  1.0
  H  H45  1  0.61290000  0.70920000  0.42550000  1.0
  H  H46  1  0.44950000  0.70160000  0.40130000  1.0
  H  H47  1  0.45300000  0.69900000  0.31630000  1.0
  H  H48  1  0.52340000  0.91070000  0.32930000  1.0
  H  H49  1  0.52210000  0.90940000  0.41500000  1.0
  H  H50  1  0.12380000  0.23440000  0.34320000  1.0
  H  H51  1  0.11290000  0.20920000  0.42550000  1.0
  H  H52  1  0.94950000  0.20160000  0.40130000  1.0
  H  H53  1  0.95300000  0.19900000  0.31630000  1.0
  H  H54  1  0.02340000  0.41070000  0.32930000  1.0
  H  H55  1  0.02210000  0.40940000  0.41500000  1.0
  H  H56  1  0.62380000  0.26560000  0.84320000  1.0
  H  H57  1  0.61290000  0.29080000  0.92550000  1.0
  H  H58  1  0.44950000  0.29840000  0.90130000  1.0
  H  H59  1  0.45300000  0.30100000  0.81630000  1.0
  H  H60  1  0.52340000  0.08930000  0.82930000  1.0
  H  H61  1  0.52210000  0.09060000  0.91500000  1.0
  H  H62  1  0.12380000  0.76560000  0.84320000  1.0
  H  H63  1  0.11290000  0.79080000  0.92550000  1.0
  H  H64  1  0.94950000  0.79840000  0.90130000  1.0
  H  H65  1  0.95300000  0.80100000  0.81630000  1.0
  H  H66  1  0.02340000  0.58930000  0.82930000  1.0
  H  H67  1  0.02210000  0.59060000  0.91500000  1.0
  H  H68  1  0.37620000  0.26560000  0.65680000  1.0
  H  H69  1  0.38710000  0.29080000  0.57450000  1.0
  H  H70  1  0.55050000  0.29840000  0.59870000  1.0
  H  H71  1  0.54700000  0.30100000  0.68370000  1.0
  H  H72  1  0.47660000  0.08930000  0.67070000  1.0
  H  H73  1  0.47790000  0.09060000  0.58500000  1.0
  H  H74  1  0.87620000  0.76560000  0.65680000  1.0
  H  H75  1  0.88710000  0.79080000  0.57450000  1.0
  H  H76  1  0.05050000  0.79840000  0.59870000  1.0
  H  H77  1  0.04700000  0.80100000  0.68370000  1.0
  H  H78  1  0.97660000  0.58930000  0.67070000  1.0
  H  H79  1  0.97790000  0.59060000  0.58500000  1.0
  C  C80  1  0.38400000  0.77830000  0.11120000  1.0
  C  C81  1  0.55390000  0.75720000  0.14274000  1.0
  C  C82  1  0.47390000  0.85330000  0.12749000  1.0
  C  C83  1  0.88400000  0.27830000  0.11120000  1.0
  C  C84  1  0.05390000  0.25720000  0.14274000  1.0
  C  C85  1  0.97390000  0.35330000  0.12749000  1.0
  C  C86  1  0.61600000  0.77830000  0.38880000  1.0
  C  C87  1  0.44610000  0.75720000  0.35726000  1.0
  C  C88  1  0.52610000  0.85330000  0.37251000  1.0
  C  C89  1  0.11600000  0.27830000  0.38880000  1.0
  C  C90  1  0.94610000  0.25720000  0.35726000  1.0
  C  C91  1  0.02610000  0.35330000  0.37251000  1.0
  C  C92  1  0.61600000  0.22170000  0.88880000  1.0
  C  C93  1  0.44610000  0.24280000  0.85726000  1.0
  C  C94  1  0.52610000  0.14670000  0.87251000  1.0
  C  C95  1  0.11600000  0.72170000  0.88880000  1.0
  C  C96  1  0.94610000  0.74280000  0.85726000  1.0
  C  C97  1  0.02610000  0.64670000  0.87251000  1.0
  C  C98  1  0.38400000  0.22170000  0.61120000  1.0
  C  C99  1  0.55390000  0.24280000  0.64274000  1.0
  C  C100  1  0.47390000  0.14670000  0.62749000  1.0
  C  C101  1  0.88400000  0.72170000  0.61120000  1.0
  C  C102  1  0.05390000  0.74280000  0.64274000  1.0
  C  C103  1  0.97390000  0.64670000  0.62749000  1.0
  O  O104  1  0.20149000  0.79780000  0.07685000  1.0
  O  O105  1  0.29072000  0.92820000  0.00058000  1.0
  O  O106  1  0.67506000  0.92570000  0.10450000  1.0
  O  O107  1  0.20282000  0.64420000  0.19135000  1.0
  O  O108  1  0.73425000  0.72180000  0.17027000  1.0
  O  O109  1  0.28878000  0.00060000  0.12552000  1.0
  O  O110  1  0.67100000  0.90010000  0.23946000  1.0
  O  O111  1  0.70149000  0.29780000  0.07685000  1.0
  O  O112  1  0.79072000  0.42820000  0.00058000  1.0
  O  O113  1  0.17506000  0.42570000  0.10450000  1.0
  O  O114  1  0.70282000  0.14420000  0.19135000  1.0
  O  O115  1  0.23425000  0.22180000  0.17027000  1.0
  O  O116  1  0.78878000  0.50060000  0.12552000  1.0
  O  O117  1  0.17100000  0.40010000  0.23946000  1.0
  O  O118  1  0.79851000  0.79780000  0.42315000  1.0
  O  O119  1  0.70928000  0.92820000  0.49942000  1.0
  O  O120  1  0.32494000  0.92570000  0.39550000  1.0
  O  O121  1  0.79718000  0.64420000  0.30865000  1.0
  O  O122  1  0.26575000  0.72180000  0.32973000  1.0
  O  O123  1  0.71122000  0.00060000  0.37448000  1.0
  O  O124  1  0.32900000  0.90010000  0.26054000  1.0
  O  O125  1  0.29851000  0.29780000  0.42315000  1.0
  O  O126  1  0.20928000  0.42820000  0.49942000  1.0
  O  O127  1  0.82494000  0.42570000  0.39550000  1.0
  O  O128  1  0.29718000  0.14420000  0.30865000  1.0
  O  O129  1  0.76575000  0.22180000  0.32973000  1.0
  O  O130  1  0.21122000  0.50060000  0.37448000  1.0
  O  O131  1  0.82900000  0.40010000  0.26054000  1.0
  O  O132  1  0.79851000  0.20220000  0.92315000  1.0
  O  O133  1  0.70928000  0.07180000  0.99942000  1.0
  O  O134  1  0.32494000  0.07430000  0.89550000  1.0
  O  O135  1  0.79718000  0.35580000  0.80865000  1.0
  O  O136  1  0.26575000  0.27820000  0.82973000  1.0
  O  O137  1  0.71122000  0.99940000  0.87448000  1.0
  O  O138  1  0.32900000  0.09990000  0.76054000  1.0
  O  O139  1  0.29851000  0.70220000  0.92315000  1.0
  O  O140  1  0.20928000  0.57180000  0.99942000  1.0
  O  O141  1  0.82494000  0.57430000  0.89550000  1.0
  O  O142  1  0.29718000  0.85580000  0.80865000  1.0
  O  O143  1  0.76575000  0.77820000  0.82973000  1.0
  O  O144  1  0.21122000  0.49940000  0.87448000  1.0
  O  O145  1  0.82900000  0.59990000  0.76054000  1.0
  O  O146  1  0.20149000  0.20220000  0.57685000  1.0
  O  O147  1  0.29072000  0.07180000  0.50058000  1.0
  O  O148  1  0.67506000  0.07430000  0.60450000  1.0
  O  O149  1  0.20282000  0.35580000  0.69135000  1.0
  O  O150  1  0.73425000  0.27820000  0.67027000  1.0
  O  O151  1  0.28878000  0.99940000  0.62552000  1.0
  O  O152  1  0.67100000  0.09990000  0.73946000  1.0
  O  O153  1  0.70149000  0.70220000  0.57685000  1.0
  O  O154  1  0.79072000  0.57180000  0.50058000  1.0
  O  O155  1  0.17506000  0.57430000  0.60450000  1.0
  O  O156  1  0.70282000  0.85580000  0.69135000  1.0
  O  O157  1  0.23425000  0.77820000  0.67027000  1.0
  O  O158  1  0.78878000  0.49940000  0.62552000  1.0
  O  O159  1  0.17100000  0.59990000  0.73946000  1.0
