# generated using pymatgen
data_Zn4Mo12H7(CO2)15
_symmetry_space_group_name_H-M   'P 1'
_cell_length_a   28.88180000
_cell_length_b   27.40170000
_cell_length_c   26.78890000
_cell_angle_alpha   90.00000000
_cell_angle_beta   104.86000000
_cell_angle_gamma   90.00000000
_symmetry_Int_Tables_number   1
_chemical_formula_structural   Zn4Mo12H7(CO2)15
_chemical_formula_sum   'Zn32 Mo96 H56 C120 O240'
_cell_volume   20491.95419790
_cell_formula_units_Z   8
loop_
 _symmetry_equiv_pos_site_id
 _symmetry_equiv_pos_as_xyz
  1  'x, y, z'
loop_
 _atom_site_type_symbol
 _atom_site_label
 _atom_site_symmetry_multiplicity
 _atom_site_fract_x
 _atom_site_fract_y
 _atom_site_fract_z
 _atom_site_occupancy
  Zn  Zn0  1  0.23886000  0.35142000  0.24933000  1.0
  Zn  Zn1  1  0.19879000  0.46491000  0.04487000  1.0
  Zn  Zn2  1  0.06608000  0.31228000  0.06702000  1.0
  Zn  Zn3  1  0.22634000  0.24719000  0.92964000  1.0
  Zn  Zn4  1  0.73886000  0.85142000  0.24933000  1.0
  Zn  Zn5  1  0.69879000  0.96491000  0.04487000  1.0
  Zn  Zn6  1  0.56608000  0.81228000  0.06702000  1.0
  Zn  Zn7  1  0.72634000  0.74719000  0.92964000  1.0
  Zn  Zn8  1  0.76114000  0.35142000  0.25067000  1.0
  Zn  Zn9  1  0.80121000  0.46491000  0.45513000  1.0
  Zn  Zn10  1  0.93392000  0.31228000  0.43298000  1.0
  Zn  Zn11  1  0.77366000  0.24719000  0.57036000  1.0
  Zn  Zn12  1  0.26114000  0.85142000  0.25067000  1.0
  Zn  Zn13  1  0.30121000  0.96491000  0.45513000  1.0
  Zn  Zn14  1  0.43392000  0.81228000  0.43298000  1.0
  Zn  Zn15  1  0.27366000  0.74719000  0.57036000  1.0
  Zn  Zn16  1  0.76114000  0.64858000  0.75067000  1.0
  Zn  Zn17  1  0.80121000  0.53509000  0.95513000  1.0
  Zn  Zn18  1  0.93392000  0.68772000  0.93298000  1.0
  Zn  Zn19  1  0.77366000  0.75281000  0.07036000  1.0
  Zn  Zn20  1  0.26114000  0.14858000  0.75067000  1.0
  Zn  Zn21  1  0.30121000  0.03509000  0.95513000  1.0
  Zn  Zn22  1  0.43392000  0.18772000  0.93298000  1.0
  Zn  Zn23  1  0.27366000  0.25281000  0.07036000  1.0
  Zn  Zn24  1  0.23886000  0.64858000  0.74933000  1.0
  Zn  Zn25  1  0.19879000  0.53509000  0.54487000  1.0
  Zn  Zn26  1  0.06608000  0.68772000  0.56702000  1.0
  Zn  Zn27  1  0.22634000  0.75281000  0.42964000  1.0
  Zn  Zn28  1  0.73886000  0.14858000  0.74933000  1.0
  Zn  Zn29  1  0.69879000  0.03509000  0.54487000  1.0
  Zn  Zn30  1  0.56608000  0.18772000  0.56702000  1.0
  Zn  Zn31  1  0.72634000  0.25281000  0.42964000  1.0
  Mo  Mo32  1  0.27872000  0.43989000  0.17288000  1.0
  Mo  Mo33  1  0.19254000  0.46321000  0.17754000  1.0
  Mo  Mo34  1  0.10998000  0.36904000  0.19061000  1.0
  Mo  Mo35  1  0.13791000  0.27816000  0.19626000  1.0
  Mo  Mo36  1  0.25058000  0.23996000  0.19215000  1.0
  Mo  Mo37  1  0.32362000  0.32363000  0.18035000  1.0
  Mo  Mo38  1  0.29999000  0.37961000  0.06152000  1.0
  Mo  Mo39  1  0.15863000  0.21682000  0.08511000  1.0
  Mo  Mo40  1  0.09270000  0.43793000  0.08061000  1.0
  Mo  Mo41  1  0.11015000  0.38359000  0.98193000  1.0
  Mo  Mo42  1  0.14689000  0.26472000  0.99846000  1.0
  Mo  Mo43  1  0.22706000  0.35701000  0.98437000  1.0
  Mo  Mo44  1  0.77872000  0.93989000  0.17288000  1.0
  Mo  Mo45  1  0.69254000  0.96321000  0.17754000  1.0
  Mo  Mo46  1  0.60998000  0.86904000  0.19061000  1.0
  Mo  Mo47  1  0.63791000  0.77816000  0.19626000  1.0
  Mo  Mo48  1  0.75058000  0.73996000  0.19215000  1.0
  Mo  Mo49  1  0.82362000  0.82363000  0.18035000  1.0
  Mo  Mo50  1  0.79999000  0.87961000  0.06152000  1.0
  Mo  Mo51  1  0.65863000  0.71682000  0.08511000  1.0
  Mo  Mo52  1  0.59270000  0.93793000  0.08061000  1.0
  Mo  Mo53  1  0.61015000  0.88359000  0.98193000  1.0
  Mo  Mo54  1  0.64689000  0.76472000  0.99846000  1.0
  Mo  Mo55  1  0.72706000  0.85701000  0.98437000  1.0
  Mo  Mo56  1  0.72128000  0.43989000  0.32712000  1.0
  Mo  Mo57  1  0.80746000  0.46321000  0.32246000  1.0
  Mo  Mo58  1  0.89002000  0.36904000  0.30939000  1.0
  Mo  Mo59  1  0.86209000  0.27816000  0.30374000  1.0
  Mo  Mo60  1  0.74942000  0.23996000  0.30785000  1.0
  Mo  Mo61  1  0.67638000  0.32363000  0.31965000  1.0
  Mo  Mo62  1  0.70001000  0.37961000  0.43848000  1.0
  Mo  Mo63  1  0.84137000  0.21682000  0.41489000  1.0
  Mo  Mo64  1  0.90730000  0.43793000  0.41939000  1.0
  Mo  Mo65  1  0.88985000  0.38359000  0.51807000  1.0
  Mo  Mo66  1  0.85311000  0.26472000  0.50154000  1.0
  Mo  Mo67  1  0.77294000  0.35701000  0.51563000  1.0
  Mo  Mo68  1  0.22128000  0.93989000  0.32712000  1.0
  Mo  Mo69  1  0.30746000  0.96321000  0.32246000  1.0
  Mo  Mo70  1  0.39002000  0.86904000  0.30939000  1.0
  Mo  Mo71  1  0.36209000  0.77816000  0.30374000  1.0
  Mo  Mo72  1  0.24942000  0.73996000  0.30785000  1.0
  Mo  Mo73  1  0.17638000  0.82363000  0.31965000  1.0
  Mo  Mo74  1  0.20001000  0.87961000  0.43848000  1.0
  Mo  Mo75  1  0.34137000  0.71682000  0.41489000  1.0
  Mo  Mo76  1  0.40730000  0.93793000  0.41939000  1.0
  Mo  Mo77  1  0.38985000  0.88359000  0.51807000  1.0
  Mo  Mo78  1  0.35311000  0.76472000  0.50154000  1.0
  Mo  Mo79  1  0.27294000  0.85701000  0.51563000  1.0
  Mo  Mo80  1  0.72128000  0.56011000  0.82712000  1.0
  Mo  Mo81  1  0.80746000  0.53679000  0.82246000  1.0
  Mo  Mo82  1  0.89002000  0.63096000  0.80939000  1.0
  Mo  Mo83  1  0.86209000  0.72184000  0.80374000  1.0
  Mo  Mo84  1  0.74942000  0.76004000  0.80785000  1.0
  Mo  Mo85  1  0.67638000  0.67637000  0.81965000  1.0
  Mo  Mo86  1  0.70001000  0.62039000  0.93848000  1.0
  Mo  Mo87  1  0.84137000  0.78318000  0.91489000  1.0
  Mo  Mo88  1  0.90730000  0.56207000  0.91939000  1.0
  Mo  Mo89  1  0.88985000  0.61641000  0.01807000  1.0
  Mo  Mo90  1  0.85311000  0.73528000  0.00154000  1.0
  Mo  Mo91  1  0.77294000  0.64299000  0.01563000  1.0
  Mo  Mo92  1  0.22128000  0.06011000  0.82712000  1.0
  Mo  Mo93  1  0.30746000  0.03679000  0.82246000  1.0
  Mo  Mo94  1  0.39002000  0.13096000  0.80939000  1.0
  Mo  Mo95  1  0.36209000  0.22184000  0.80374000  1.0
  Mo  Mo96  1  0.24942000  0.26004000  0.80785000  1.0
  Mo  Mo97  1  0.17638000  0.17637000  0.81965000  1.0
  Mo  Mo98  1  0.20001000  0.12039000  0.93848000  1.0
  Mo  Mo99  1  0.34137000  0.28318000  0.91489000  1.0
  Mo  Mo100  1  0.40730000  0.06207000  0.91939000  1.0
  Mo  Mo101  1  0.38985000  0.11641000  0.01807000  1.0
  Mo  Mo102  1  0.35311000  0.23528000  0.00154000  1.0
  Mo  Mo103  1  0.27294000  0.14299000  0.01563000  1.0
  Mo  Mo104  1  0.27872000  0.56011000  0.67288000  1.0
  Mo  Mo105  1  0.19254000  0.53679000  0.67754000  1.0
  Mo  Mo106  1  0.10998000  0.63096000  0.69061000  1.0
  Mo  Mo107  1  0.13791000  0.72184000  0.69626000  1.0
  Mo  Mo108  1  0.25058000  0.76004000  0.69215000  1.0
  Mo  Mo109  1  0.32362000  0.67637000  0.68035000  1.0
  Mo  Mo110  1  0.29999000  0.62039000  0.56152000  1.0
  Mo  Mo111  1  0.15863000  0.78318000  0.58511000  1.0
  Mo  Mo112  1  0.09270000  0.56207000  0.58061000  1.0
  Mo  Mo113  1  0.11015000  0.61641000  0.48193000  1.0
  Mo  Mo114  1  0.14689000  0.73528000  0.49846000  1.0
  Mo  Mo115  1  0.22706000  0.64299000  0.48437000  1.0
  Mo  Mo116  1  0.77872000  0.06011000  0.67288000  1.0
  Mo  Mo117  1  0.69254000  0.03679000  0.67754000  1.0
  Mo  Mo118  1  0.60998000  0.13096000  0.69061000  1.0
  Mo  Mo119  1  0.63791000  0.22184000  0.69626000  1.0
  Mo  Mo120  1  0.75058000  0.26004000  0.69215000  1.0
  Mo  Mo121  1  0.82362000  0.17637000  0.68035000  1.0
  Mo  Mo122  1  0.79999000  0.12039000  0.56152000  1.0
  Mo  Mo123  1  0.65863000  0.28318000  0.58511000  1.0
  Mo  Mo124  1  0.59270000  0.06207000  0.58061000  1.0
  Mo  Mo125  1  0.61015000  0.11641000  0.48193000  1.0
  Mo  Mo126  1  0.64689000  0.23528000  0.49846000  1.0
  Mo  Mo127  1  0.72706000  0.14299000  0.48437000  1.0
  H  H128  1  0.31220000  0.33800000  0.40570000  1.0
  H  H129  1  0.32130000  0.40280000  0.54100000  1.0
  H  H130  1  0.21580000  0.43990000  0.41830000  1.0
  H  H131  1  0.40110000  0.38740000  0.55090000  1.0
  H  H132  1  0.46900000  0.34440000  0.58650000  1.0
  H  H133  1  0.41920000  0.23150000  0.49500000  1.0
  H  H134  1  0.34940000  0.27410000  0.45980000  1.0
  H  H135  1  0.81220000  0.83800000  0.40570000  1.0
  H  H136  1  0.82130000  0.90280000  0.54100000  1.0
  H  H137  1  0.71580000  0.93990000  0.41830000  1.0
  H  H138  1  0.90110000  0.88740000  0.55090000  1.0
  H  H139  1  0.96900000  0.84440000  0.58650000  1.0
  H  H140  1  0.91920000  0.73150000  0.49500000  1.0
  H  H141  1  0.84940000  0.77410000  0.45980000  1.0
  H  H142  1  0.68780000  0.33800000  0.09430000  1.0
  H  H143  1  0.67870000  0.40280000  0.95900000  1.0
  H  H144  1  0.78420000  0.43990000  0.08170000  1.0
  H  H145  1  0.59890000  0.38740000  0.94910000  1.0
  H  H146  1  0.53100000  0.34440000  0.91350000  1.0
  H  H147  1  0.58080000  0.23150000  0.00500000  1.0
  H  H148  1  0.65060000  0.27410000  0.04020000  1.0
  H  H149  1  0.18780000  0.83800000  0.09430000  1.0
  H  H150  1  0.17870000  0.90280000  0.95900000  1.0
  H  H151  1  0.28420000  0.93990000  0.08170000  1.0
  H  H152  1  0.09890000  0.88740000  0.94910000  1.0
  H  H153  1  0.03100000  0.84440000  0.91350000  1.0
  H  H154  1  0.08080000  0.73150000  0.00500000  1.0
  H  H155  1  0.15060000  0.77410000  0.04020000  1.0
  H  H156  1  0.68780000  0.66200000  0.59430000  1.0
  H  H157  1  0.67870000  0.59720000  0.45900000  1.0
  H  H158  1  0.78420000  0.56010000  0.58170000  1.0
  H  H159  1  0.59890000  0.61260000  0.44910000  1.0
  H  H160  1  0.53100000  0.65560000  0.41350000  1.0
  H  H161  1  0.58080000  0.76850000  0.50500000  1.0
  H  H162  1  0.65060000  0.72590000  0.54020000  1.0
  H  H163  1  0.18780000  0.16200000  0.59430000  1.0
  H  H164  1  0.17870000  0.09720000  0.45900000  1.0
  H  H165  1  0.28420000  0.06010000  0.58170000  1.0
  H  H166  1  0.09890000  0.11260000  0.44910000  1.0
  H  H167  1  0.03100000  0.15560000  0.41350000  1.0
  H  H168  1  0.08080000  0.26850000  0.50500000  1.0
  H  H169  1  0.15060000  0.22590000  0.54020000  1.0
  H  H170  1  0.31220000  0.66200000  0.90570000  1.0
  H  H171  1  0.32130000  0.59720000  0.04100000  1.0
  H  H172  1  0.21580000  0.56010000  0.91830000  1.0
  H  H173  1  0.40110000  0.61260000  0.05090000  1.0
  H  H174  1  0.46900000  0.65560000  0.08650000  1.0
  H  H175  1  0.41920000  0.76850000  0.99500000  1.0
  H  H176  1  0.34940000  0.72590000  0.95980000  1.0
  H  H177  1  0.81220000  0.16200000  0.90570000  1.0
  H  H178  1  0.82130000  0.09720000  0.04100000  1.0
  H  H179  1  0.71580000  0.06010000  0.91830000  1.0
  H  H180  1  0.90110000  0.11260000  0.05090000  1.0
  H  H181  1  0.96900000  0.15560000  0.08650000  1.0
  H  H182  1  0.91920000  0.26850000  0.99500000  1.0
  H  H183  1  0.84940000  0.22590000  0.95980000  1.0
  C  C184  1  0.23880000  0.38430000  0.34570000  1.0
  C  C185  1  0.26080000  0.38770000  0.40310000  1.0
  C  C186  1  0.30050000  0.36020000  0.42570000  1.0
  C  C187  1  0.32360000  0.36480000  0.47780000  1.0
  C  C188  1  0.30580000  0.39870000  0.50630000  1.0
  C  C189  1  0.26630000  0.42660000  0.48520000  1.0
  C  C190  1  0.24280000  0.42140000  0.43300000  1.0
  C  C191  1  0.25070000  0.46410000  0.51880000  1.0
  C  C192  1  0.36770000  0.33610000  0.50120000  1.0
  C  C193  1  0.40430000  0.35590000  0.53930000  1.0
  C  C194  1  0.44530000  0.33030000  0.56030000  1.0
  C  C195  1  0.45240000  0.28350000  0.54320000  1.0
  C  C196  1  0.41580000  0.26310000  0.50620000  1.0
  C  C197  1  0.37370000  0.28870000  0.48490000  1.0
  C  C198  1  0.49890000  0.25850000  0.56450000  1.0
  C  C199  1  0.73880000  0.88430000  0.34570000  1.0
  C  C200  1  0.76080000  0.88770000  0.40310000  1.0
  C  C201  1  0.80050000  0.86020000  0.42570000  1.0
  C  C202  1  0.82360000  0.86480000  0.47780000  1.0
  C  C203  1  0.80580000  0.89870000  0.50630000  1.0
  C  C204  1  0.76630000  0.92660000  0.48520000  1.0
  C  C205  1  0.74280000  0.92140000  0.43300000  1.0
  C  C206  1  0.75070000  0.96410000  0.51880000  1.0
  C  C207  1  0.86770000  0.83610000  0.50120000  1.0
  C  C208  1  0.90430000  0.85590000  0.53930000  1.0
  C  C209  1  0.94530000  0.83030000  0.56030000  1.0
  C  C210  1  0.95240000  0.78350000  0.54320000  1.0
  C  C211  1  0.91580000  0.76310000  0.50620000  1.0
  C  C212  1  0.87370000  0.78870000  0.48490000  1.0
  C  C213  1  0.99890000  0.75850000  0.56450000  1.0
  C  C214  1  0.76120000  0.38430000  0.15430000  1.0
  C  C215  1  0.73920000  0.38770000  0.09690000  1.0
  C  C216  1  0.69950000  0.36020000  0.07430000  1.0
  C  C217  1  0.67640000  0.36480000  0.02220000  1.0
  C  C218  1  0.69420000  0.39870000  0.99370000  1.0
  C  C219  1  0.73370000  0.42660000  0.01480000  1.0
  C  C220  1  0.75720000  0.42140000  0.06700000  1.0
  C  C221  1  0.74930000  0.46410000  0.98120000  1.0
  C  C222  1  0.63230000  0.33610000  0.99880000  1.0
  C  C223  1  0.59570000  0.35590000  0.96070000  1.0
  C  C224  1  0.55470000  0.33030000  0.93970000  1.0
  C  C225  1  0.54760000  0.28350000  0.95680000  1.0
  C  C226  1  0.58420000  0.26310000  0.99380000  1.0
  C  C227  1  0.62630000  0.28870000  0.01510000  1.0
  C  C228  1  0.50110000  0.25850000  0.93550000  1.0
  C  C229  1  0.26120000  0.88430000  0.15430000  1.0
  C  C230  1  0.23920000  0.88770000  0.09690000  1.0
  C  C231  1  0.19950000  0.86020000  0.07430000  1.0
  C  C232  1  0.17640000  0.86480000  0.02220000  1.0
  C  C233  1  0.19420000  0.89870000  0.99370000  1.0
  C  C234  1  0.23370000  0.92660000  0.01480000  1.0
  C  C235  1  0.25720000  0.92140000  0.06700000  1.0
  C  C236  1  0.24930000  0.96410000  0.98120000  1.0
  C  C237  1  0.13230000  0.83610000  0.99880000  1.0
  C  C238  1  0.09570000  0.85590000  0.96070000  1.0
  C  C239  1  0.05470000  0.83030000  0.93970000  1.0
  C  C240  1  0.04760000  0.78350000  0.95680000  1.0
  C  C241  1  0.08420000  0.76310000  0.99380000  1.0
  C  C242  1  0.12630000  0.78870000  0.01510000  1.0
  C  C243  1  0.00110000  0.75850000  0.93550000  1.0
  C  C244  1  0.76120000  0.61570000  0.65430000  1.0
  C  C245  1  0.73920000  0.61230000  0.59690000  1.0
  C  C246  1  0.69950000  0.63980000  0.57430000  1.0
  C  C247  1  0.67640000  0.63520000  0.52220000  1.0
  C  C248  1  0.69420000  0.60130000  0.49370000  1.0
  C  C249  1  0.73370000  0.57340000  0.51480000  1.0
  C  C250  1  0.75720000  0.57860000  0.56700000  1.0
  C  C251  1  0.74930000  0.53590000  0.48120000  1.0
  C  C252  1  0.63230000  0.66390000  0.49880000  1.0
  C  C253  1  0.59570000  0.64410000  0.46070000  1.0
  C  C254  1  0.55470000  0.66970000  0.43970000  1.0
  C  C255  1  0.54760000  0.71650000  0.45680000  1.0
  C  C256  1  0.58420000  0.73690000  0.49380000  1.0
  C  C257  1  0.62630000  0.71130000  0.51510000  1.0
  C  C258  1  0.50110000  0.74150000  0.43550000  1.0
  C  C259  1  0.26120000  0.11570000  0.65430000  1.0
  C  C260  1  0.23920000  0.11230000  0.59690000  1.0
  C  C261  1  0.19950000  0.13980000  0.57430000  1.0
  C  C262  1  0.17640000  0.13520000  0.52220000  1.0
  C  C263  1  0.19420000  0.10130000  0.49370000  1.0
  C  C264  1  0.23370000  0.07340000  0.51480000  1.0
  C  C265  1  0.25720000  0.07860000  0.56700000  1.0
  C  C266  1  0.24930000  0.03590000  0.48120000  1.0
  C  C267  1  0.13230000  0.16390000  0.49880000  1.0
  C  C268  1  0.09570000  0.14410000  0.46070000  1.0
  C  C269  1  0.05470000  0.16970000  0.43970000  1.0
  C  C270  1  0.04760000  0.21650000  0.45680000  1.0
  C  C271  1  0.08420000  0.23690000  0.49380000  1.0
  C  C272  1  0.12630000  0.21130000  0.51510000  1.0
  C  C273  1  0.00110000  0.24150000  0.43550000  1.0
  C  C274  1  0.23880000  0.61570000  0.84570000  1.0
  C  C275  1  0.26080000  0.61230000  0.90310000  1.0
  C  C276  1  0.30050000  0.63980000  0.92570000  1.0
  C  C277  1  0.32360000  0.63520000  0.97780000  1.0
  C  C278  1  0.30580000  0.60130000  0.00630000  1.0
  C  C279  1  0.26630000  0.57340000  0.98520000  1.0
  C  C280  1  0.24280000  0.57860000  0.93300000  1.0
  C  C281  1  0.25070000  0.53590000  0.01880000  1.0
  C  C282  1  0.36770000  0.66390000  0.00120000  1.0
  C  C283  1  0.40430000  0.64410000  0.03930000  1.0
  C  C284  1  0.44530000  0.66970000  0.06030000  1.0
  C  C285  1  0.45240000  0.71650000  0.04320000  1.0
  C  C286  1  0.41580000  0.73690000  0.00620000  1.0
  C  C287  1  0.37370000  0.71130000  0.98490000  1.0
  C  C288  1  0.49890000  0.74150000  0.06450000  1.0
  C  C289  1  0.73880000  0.11570000  0.84570000  1.0
  C  C290  1  0.76080000  0.11230000  0.90310000  1.0
  C  C291  1  0.80050000  0.13980000  0.92570000  1.0
  C  C292  1  0.82360000  0.13520000  0.97780000  1.0
  C  C293  1  0.80580000  0.10130000  0.00630000  1.0
  C  C294  1  0.76630000  0.07340000  0.98520000  1.0
  C  C295  1  0.74280000  0.07860000  0.93300000  1.0
  C  C296  1  0.75070000  0.03590000  0.01880000  1.0
  C  C297  1  0.86770000  0.16390000  0.00120000  1.0
  C  C298  1  0.90430000  0.14410000  0.03930000  1.0
  C  C299  1  0.94530000  0.16970000  0.06030000  1.0
  C  C300  1  0.95240000  0.21650000  0.04320000  1.0
  C  C301  1  0.91580000  0.23690000  0.00620000  1.0
  C  C302  1  0.87370000  0.21130000  0.98490000  1.0
  C  C303  1  0.99890000  0.24150000  0.06450000  1.0
  O  O304  1  0.26160000  0.35540000  0.32250000  1.0
  O  O305  1  0.20330000  0.40890000  0.32430000  1.0
  O  O306  1  0.20766000  0.48002000  0.50310000  1.0
  O  O307  1  0.28040000  0.47840000  0.55810000  1.0
  O  O308  1  0.50250000  0.21520000  0.54690000  1.0
  O  O309  1  0.53080000  0.28030000  0.59620000  1.0
  O  O310  1  0.32295000  0.38600000  0.20530000  1.0
  O  O311  1  0.27595000  0.30540000  0.21984000  1.0
  O  O312  1  0.20200000  0.24780000  0.22440000  1.0
  O  O313  1  0.23886000  0.41628000  0.21710000  1.0
  O  O314  1  0.16944000  0.33750000  0.22800000  1.0
  O  O315  1  0.14800000  0.43220000  0.21850000  1.0
  O  O316  1  0.33856000  0.33990000  0.12080000  1.0
  O  O317  1  0.28976000  0.26413000  0.14500000  1.0
  O  O318  1  0.31058000  0.43824000  0.11240000  1.0
  O  O319  1  0.21736000  0.20111000  0.14066000  1.0
  O  O320  1  0.22386000  0.46776000  0.12130000  1.0
  O  O321  1  0.12419000  0.22171000  0.14420000  1.0
  O  O322  1  0.13374000  0.47994000  0.12270000  1.0
  O  O323  1  0.09086000  0.31400000  0.14360000  1.0
  O  O324  1  0.07111000  0.40861000  0.13170000  1.0
  O  O325  1  0.27181000  0.31690000  0.03519000  1.0
  O  O326  1  0.24185000  0.41547000  0.02751000  1.0
  O  O327  1  0.20430000  0.23892000  0.04715000  1.0
  O  O328  1  0.10924000  0.26304000  0.04963000  1.0
  O  O329  1  0.13334000  0.44022000  0.03098000  1.0
  O  O330  1  0.07861000  0.37590000  0.04050000  1.0
  O  O331  1  0.19194000  0.29465000  0.96111000  1.0
  O  O332  1  0.16317000  0.39048000  0.95810000  1.0
  O  O333  1  0.10067000  0.31914000  0.96861000  1.0
  O  O334  1  0.76160000  0.85540000  0.32250000  1.0
  O  O335  1  0.70330000  0.90890000  0.32430000  1.0
  O  O336  1  0.70766000  0.98002000  0.50310000  1.0
  O  O337  1  0.78040000  0.97840000  0.55810000  1.0
  O  O338  1  0.00250000  0.71520000  0.54690000  1.0
  O  O339  1  0.03080000  0.78030000  0.59620000  1.0
  O  O340  1  0.82295000  0.88600000  0.20530000  1.0
  O  O341  1  0.77595000  0.80540000  0.21984000  1.0
  O  O342  1  0.70200000  0.74780000  0.22440000  1.0
  O  O343  1  0.73886000  0.91628000  0.21710000  1.0
  O  O344  1  0.66944000  0.83750000  0.22800000  1.0
  O  O345  1  0.64800000  0.93220000  0.21850000  1.0
  O  O346  1  0.83856000  0.83990000  0.12080000  1.0
  O  O347  1  0.78976000  0.76413000  0.14500000  1.0
  O  O348  1  0.81058000  0.93824000  0.11240000  1.0
  O  O349  1  0.71736000  0.70111000  0.14066000  1.0
  O  O350  1  0.72386000  0.96776000  0.12130000  1.0
  O  O351  1  0.62419000  0.72171000  0.14420000  1.0
  O  O352  1  0.63374000  0.97994000  0.12270000  1.0
  O  O353  1  0.59086000  0.81400000  0.14360000  1.0
  O  O354  1  0.57111000  0.90861000  0.13170000  1.0
  O  O355  1  0.77181000  0.81690000  0.03519000  1.0
  O  O356  1  0.74185000  0.91547000  0.02751000  1.0
  O  O357  1  0.70430000  0.73892000  0.04715000  1.0
  O  O358  1  0.60924000  0.76304000  0.04963000  1.0
  O  O359  1  0.63334000  0.94022000  0.03098000  1.0
  O  O360  1  0.57861000  0.87590000  0.04050000  1.0
  O  O361  1  0.69194000  0.79465000  0.96111000  1.0
  O  O362  1  0.66317000  0.89048000  0.95810000  1.0
  O  O363  1  0.60067000  0.81914000  0.96861000  1.0
  O  O364  1  0.73840000  0.35540000  0.17750000  1.0
  O  O365  1  0.79670000  0.40890000  0.17570000  1.0
  O  O366  1  0.79234000  0.48002000  0.99690000  1.0
  O  O367  1  0.71960000  0.47840000  0.94190000  1.0
  O  O368  1  0.49750000  0.21520000  0.95310000  1.0
  O  O369  1  0.46920000  0.28030000  0.90380000  1.0
  O  O370  1  0.67705000  0.38600000  0.29470000  1.0
  O  O371  1  0.72405000  0.30540000  0.28016000  1.0
  O  O372  1  0.79800000  0.24780000  0.27560000  1.0
  O  O373  1  0.76114000  0.41628000  0.28290000  1.0
  O  O374  1  0.83056000  0.33750000  0.27200000  1.0
  O  O375  1  0.85200000  0.43220000  0.28150000  1.0
  O  O376  1  0.66144000  0.33990000  0.37920000  1.0
  O  O377  1  0.71024000  0.26413000  0.35500000  1.0
  O  O378  1  0.68942000  0.43824000  0.38760000  1.0
  O  O379  1  0.78264000  0.20111000  0.35934000  1.0
  O  O380  1  0.77614000  0.46776000  0.37870000  1.0
  O  O381  1  0.87581000  0.22171000  0.35580000  1.0
  O  O382  1  0.86626000  0.47994000  0.37730000  1.0
  O  O383  1  0.90914000  0.31400000  0.35640000  1.0
  O  O384  1  0.92889000  0.40861000  0.36830000  1.0
  O  O385  1  0.72819000  0.31690000  0.46481000  1.0
  O  O386  1  0.75815000  0.41547000  0.47249000  1.0
  O  O387  1  0.79570000  0.23892000  0.45285000  1.0
  O  O388  1  0.89076000  0.26304000  0.45037000  1.0
  O  O389  1  0.86666000  0.44022000  0.46902000  1.0
  O  O390  1  0.92139000  0.37590000  0.45950000  1.0
  O  O391  1  0.80806000  0.29465000  0.53889000  1.0
  O  O392  1  0.83683000  0.39048000  0.54190000  1.0
  O  O393  1  0.89933000  0.31914000  0.53139000  1.0
  O  O394  1  0.23840000  0.85540000  0.17750000  1.0
  O  O395  1  0.29670000  0.90890000  0.17570000  1.0
  O  O396  1  0.29234000  0.98002000  0.99690000  1.0
  O  O397  1  0.21960000  0.97840000  0.94190000  1.0
  O  O398  1  0.99750000  0.71520000  0.95310000  1.0
  O  O399  1  0.96920000  0.78030000  0.90380000  1.0
  O  O400  1  0.17705000  0.88600000  0.29470000  1.0
  O  O401  1  0.22405000  0.80540000  0.28016000  1.0
  O  O402  1  0.29800000  0.74780000  0.27560000  1.0
  O  O403  1  0.26114000  0.91628000  0.28290000  1.0
  O  O404  1  0.33056000  0.83750000  0.27200000  1.0
  O  O405  1  0.35200000  0.93220000  0.28150000  1.0
  O  O406  1  0.16144000  0.83990000  0.37920000  1.0
  O  O407  1  0.21024000  0.76413000  0.35500000  1.0
  O  O408  1  0.18942000  0.93824000  0.38760000  1.0
  O  O409  1  0.28264000  0.70111000  0.35934000  1.0
  O  O410  1  0.27614000  0.96776000  0.37870000  1.0
  O  O411  1  0.37581000  0.72171000  0.35580000  1.0
  O  O412  1  0.36626000  0.97994000  0.37730000  1.0
  O  O413  1  0.40914000  0.81400000  0.35640000  1.0
  O  O414  1  0.42889000  0.90861000  0.36830000  1.0
  O  O415  1  0.22819000  0.81690000  0.46481000  1.0
  O  O416  1  0.25815000  0.91547000  0.47249000  1.0
  O  O417  1  0.29570000  0.73892000  0.45285000  1.0
  O  O418  1  0.39076000  0.76304000  0.45037000  1.0
  O  O419  1  0.36666000  0.94022000  0.46902000  1.0
  O  O420  1  0.42139000  0.87590000  0.45950000  1.0
  O  O421  1  0.30806000  0.79465000  0.53889000  1.0
  O  O422  1  0.33683000  0.89048000  0.54190000  1.0
  O  O423  1  0.39933000  0.81914000  0.53139000  1.0
  O  O424  1  0.73840000  0.64460000  0.67750000  1.0
  O  O425  1  0.79670000  0.59110000  0.67570000  1.0
  O  O426  1  0.79234000  0.51998000  0.49690000  1.0
  O  O427  1  0.71960000  0.52160000  0.44190000  1.0
  O  O428  1  0.49750000  0.78480000  0.45310000  1.0
  O  O429  1  0.46920000  0.71970000  0.40380000  1.0
  O  O430  1  0.67705000  0.61400000  0.79470000  1.0
  O  O431  1  0.72405000  0.69460000  0.78016000  1.0
  O  O432  1  0.79800000  0.75220000  0.77560000  1.0
  O  O433  1  0.76114000  0.58372000  0.78290000  1.0
  O  O434  1  0.83056000  0.66250000  0.77200000  1.0
  O  O435  1  0.85200000  0.56780000  0.78150000  1.0
  O  O436  1  0.66144000  0.66010000  0.87920000  1.0
  O  O437  1  0.71024000  0.73587000  0.85500000  1.0
  O  O438  1  0.68942000  0.56176000  0.88760000  1.0
  O  O439  1  0.78264000  0.79889000  0.85934000  1.0
  O  O440  1  0.77614000  0.53224000  0.87870000  1.0
  O  O441  1  0.87581000  0.77829000  0.85580000  1.0
  O  O442  1  0.86626000  0.52006000  0.87730000  1.0
  O  O443  1  0.90914000  0.68600000  0.85640000  1.0
  O  O444  1  0.92889000  0.59139000  0.86830000  1.0
  O  O445  1  0.72819000  0.68310000  0.96481000  1.0
  O  O446  1  0.75815000  0.58453000  0.97249000  1.0
  O  O447  1  0.79570000  0.76108000  0.95285000  1.0
  O  O448  1  0.89076000  0.73696000  0.95037000  1.0
  O  O449  1  0.86666000  0.55978000  0.96902000  1.0
  O  O450  1  0.92139000  0.62410000  0.95950000  1.0
  O  O451  1  0.80806000  0.70535000  0.03889000  1.0
  O  O452  1  0.83683000  0.60952000  0.04190000  1.0
  O  O453  1  0.89933000  0.68086000  0.03139000  1.0
  O  O454  1  0.23840000  0.14460000  0.67750000  1.0
  O  O455  1  0.29670000  0.09110000  0.67570000  1.0
  O  O456  1  0.29234000  0.01998000  0.49690000  1.0
  O  O457  1  0.21960000  0.02160000  0.44190000  1.0
  O  O458  1  0.99750000  0.28480000  0.45310000  1.0
  O  O459  1  0.96920000  0.21970000  0.40380000  1.0
  O  O460  1  0.17705000  0.11400000  0.79470000  1.0
  O  O461  1  0.22405000  0.19460000  0.78016000  1.0
  O  O462  1  0.29800000  0.25220000  0.77560000  1.0
  O  O463  1  0.26114000  0.08372000  0.78290000  1.0
  O  O464  1  0.33056000  0.16250000  0.77200000  1.0
  O  O465  1  0.35200000  0.06780000  0.78150000  1.0
  O  O466  1  0.16144000  0.16010000  0.87920000  1.0
  O  O467  1  0.21024000  0.23587000  0.85500000  1.0
  O  O468  1  0.18942000  0.06176000  0.88760000  1.0
  O  O469  1  0.28264000  0.29889000  0.85934000  1.0
  O  O470  1  0.27614000  0.03224000  0.87870000  1.0
  O  O471  1  0.37581000  0.27829000  0.85580000  1.0
  O  O472  1  0.36626000  0.02006000  0.87730000  1.0
  O  O473  1  0.40914000  0.18600000  0.85640000  1.0
  O  O474  1  0.42889000  0.09139000  0.86830000  1.0
  O  O475  1  0.22819000  0.18310000  0.96481000  1.0
  O  O476  1  0.25815000  0.08453000  0.97249000  1.0
  O  O477  1  0.29570000  0.26108000  0.95285000  1.0
  O  O478  1  0.39076000  0.23696000  0.95037000  1.0
  O  O479  1  0.36666000  0.05978000  0.96902000  1.0
  O  O480  1  0.42139000  0.12410000  0.95950000  1.0
  O  O481  1  0.30806000  0.20535000  0.03889000  1.0
  O  O482  1  0.33683000  0.10952000  0.04190000  1.0
  O  O483  1  0.39933000  0.18086000  0.03139000  1.0
  O  O484  1  0.26160000  0.64460000  0.82250000  1.0
  O  O485  1  0.20330000  0.59110000  0.82430000  1.0
  O  O486  1  0.20766000  0.51998000  0.00310000  1.0
  O  O487  1  0.28040000  0.52160000  0.05810000  1.0
  O  O488  1  0.50250000  0.78480000  0.04690000  1.0
  O  O489  1  0.53080000  0.71970000  0.09620000  1.0
  O  O490  1  0.32295000  0.61400000  0.70530000  1.0
  O  O491  1  0.27595000  0.69460000  0.71984000  1.0
  O  O492  1  0.20200000  0.75220000  0.72440000  1.0
  O  O493  1  0.23886000  0.58372000  0.71710000  1.0
  O  O494  1  0.16944000  0.66250000  0.72800000  1.0
  O  O495  1  0.14800000  0.56780000  0.71850000  1.0
  O  O496  1  0.33856000  0.66010000  0.62080000  1.0
  O  O497  1  0.28976000  0.73587000  0.64500000  1.0
  O  O498  1  0.31058000  0.56176000  0.61240000  1.0
  O  O499  1  0.21736000  0.79889000  0.64066000  1.0
  O  O500  1  0.22386000  0.53224000  0.62130000  1.0
  O  O501  1  0.12419000  0.77829000  0.64420000  1.0
  O  O502  1  0.13374000  0.52006000  0.62270000  1.0
  O  O503  1  0.09086000  0.68600000  0.64360000  1.0
  O  O504  1  0.07111000  0.59139000  0.63170000  1.0
  O  O505  1  0.27181000  0.68310000  0.53519000  1.0
  O  O506  1  0.24185000  0.58453000  0.52751000  1.0
  O  O507  1  0.20430000  0.76108000  0.54715000  1.0
  O  O508  1  0.10924000  0.73696000  0.54963000  1.0
  O  O509  1  0.13334000  0.55978000  0.53098000  1.0
  O  O510  1  0.07861000  0.62410000  0.54050000  1.0
  O  O511  1  0.19194000  0.70535000  0.46111000  1.0
  O  O512  1  0.16317000  0.60952000  0.45810000  1.0
  O  O513  1  0.10067000  0.68086000  0.46861000  1.0
  O  O514  1  0.76160000  0.14460000  0.82250000  1.0
  O  O515  1  0.70330000  0.09110000  0.82430000  1.0
  O  O516  1  0.70766000  0.01998000  0.00310000  1.0
  O  O517  1  0.78040000  0.02160000  0.05810000  1.0
  O  O518  1  0.00250000  0.28480000  0.04690000  1.0
  O  O519  1  0.03080000  0.21970000  0.09620000  1.0
  O  O520  1  0.82295000  0.11400000  0.70530000  1.0
  O  O521  1  0.77595000  0.19460000  0.71984000  1.0
  O  O522  1  0.70200000  0.25220000  0.72440000  1.0
  O  O523  1  0.73886000  0.08372000  0.71710000  1.0
  O  O524  1  0.66944000  0.16250000  0.72800000  1.0
  O  O525  1  0.64800000  0.06780000  0.71850000  1.0
  O  O526  1  0.83856000  0.16010000  0.62080000  1.0
  O  O527  1  0.78976000  0.23587000  0.64500000  1.0
  O  O528  1  0.81058000  0.06176000  0.61240000  1.0
  O  O529  1  0.71736000  0.29889000  0.64066000  1.0
  O  O530  1  0.72386000  0.03224000  0.62130000  1.0
  O  O531  1  0.62419000  0.27829000  0.64420000  1.0
  O  O532  1  0.63374000  0.02006000  0.62270000  1.0
  O  O533  1  0.59086000  0.18600000  0.64360000  1.0
  O  O534  1  0.57111000  0.09139000  0.63170000  1.0
  O  O535  1  0.77181000  0.18310000  0.53519000  1.0
  O  O536  1  0.74185000  0.08453000  0.52751000  1.0
  O  O537  1  0.70430000  0.26108000  0.54715000  1.0
  O  O538  1  0.60924000  0.23696000  0.54963000  1.0
  O  O539  1  0.63334000  0.05978000  0.53098000  1.0
  O  O540  1  0.57861000  0.12410000  0.54050000  1.0
  O  O541  1  0.69194000  0.20535000  0.46111000  1.0
  O  O542  1  0.66317000  0.10952000  0.45810000  1.0
  O  O543  1  0.60067000  0.18086000  0.46861000  1.0
