# generated using pymatgen
data_Zn4H24C45N3O16
_symmetry_space_group_name_H-M   'P 1'
_cell_length_a   19.08930000
_cell_length_b   26.95200000
_cell_length_c   27.78910000
_cell_angle_alpha   90.00000000
_cell_angle_beta   97.08720000
_cell_angle_gamma   90.00000000
_symmetry_Int_Tables_number   1
_chemical_formula_structural   Zn4H24C45N3O16
_chemical_formula_sum   'Zn16 H96 C180 N12 O64'
_cell_volume   14188.10930968
_cell_formula_units_Z   4
loop_
 _symmetry_equiv_pos_site_id
 _symmetry_equiv_pos_as_xyz
  1  'x, y, z'
loop_
 _atom_site_type_symbol
 _atom_site_label
 _atom_site_symmetry_multiplicity
 _atom_site_fract_x
 _atom_site_fract_y
 _atom_site_fract_z
 _atom_site_occupancy
  Zn  Zn0  1  0.16987000  0.39059000  0.43488000  1.0
  Zn  Zn1  1  0.28438000  0.44699000  0.50383000  1.0
  Zn  Zn2  1  0.16099000  0.38823000  0.54962000  1.0
  Zn  Zn3  1  0.28228000  0.33134000  0.50385000  1.0
  Zn  Zn4  1  0.33013000  0.89059000  0.06512000  1.0
  Zn  Zn5  1  0.21562000  0.94699000  0.99617000  1.0
  Zn  Zn6  1  0.33901000  0.88823000  0.95038000  1.0
  Zn  Zn7  1  0.21772000  0.83134000  0.99615000  1.0
  Zn  Zn8  1  0.83013000  0.60941000  0.56512000  1.0
  Zn  Zn9  1  0.71562000  0.55301000  0.49617000  1.0
  Zn  Zn10  1  0.83901000  0.61177000  0.45038000  1.0
  Zn  Zn11  1  0.71772000  0.66866000  0.49615000  1.0
  Zn  Zn12  1  0.66987000  0.10941000  0.93488000  1.0
  Zn  Zn13  1  0.78438000  0.05301000  0.00383000  1.0
  Zn  Zn14  1  0.66099000  0.11177000  0.04962000  1.0
  Zn  Zn15  1  0.78228000  0.16866000  0.00385000  1.0
  H  H16  1  0.95300000  0.33940000  0.43060000  1.0
  H  H17  1  0.83210000  0.33340000  0.43010000  1.0
  H  H18  1  0.82760000  0.47070000  0.48520000  1.0
  H  H19  1  0.94850000  0.47730000  0.48480000  1.0
  H  H20  1  0.62850000  0.32060000  0.52500000  1.0
  H  H21  1  0.50730000  0.31960000  0.52620000  1.0
  H  H22  1  0.49530000  0.46030000  0.47750000  1.0
  H  H23  1  0.61640000  0.46180000  0.47730000  1.0
  H  H24  1  0.30790000  0.50260000  0.67140000  1.0
  H  H25  1  0.30200000  0.56570000  0.72740000  1.0
  H  H26  1  0.14870000  0.63190000  0.63760000  1.0
  H  H27  1  0.15550000  0.56950000  0.58150000  1.0
  H  H28  1  0.20040000  0.65380000  0.84190000  1.0
  H  H29  1  0.19030000  0.71810000  0.89640000  1.0
  H  H30  1  0.32440000  0.80020000  0.82750000  1.0
  H  H31  1  0.33170000  0.73590000  0.77280000  1.0
  H  H32  1  0.29880000  0.57230000  0.41720000  1.0
  H  H33  1  0.30460000  0.63460000  0.36000000  1.0
  H  H34  1  0.18870000  0.55200000  0.25990000  1.0
  H  H35  1  0.18200000  0.48940000  0.31720000  1.0
  H  H36  1  0.31380000  0.71850000  0.23860000  1.0
  H  H37  1  0.32250000  0.78450000  0.18520000  1.0
  H  H38  1  0.20000000  0.71040000  0.08140000  1.0
  H  H39  1  0.19490000  0.64280000  0.13410000  1.0
  H  H40  1  0.54700000  0.83940000  0.06940000  1.0
  H  H41  1  0.66790000  0.83340000  0.06990000  1.0
  H  H42  1  0.67240000  0.97070000  0.01480000  1.0
  H  H43  1  0.55150000  0.97730000  0.01520000  1.0
  H  H44  1  0.87150000  0.82060000  0.97500000  1.0
  H  H45  1  0.99270000  0.81960000  0.97380000  1.0
  H  H46  1  0.00470000  0.96030000  0.02250000  1.0
  H  H47  1  0.88360000  0.96180000  0.02270000  1.0
  H  H48  1  0.19210000  0.00260000  0.82860000  1.0
  H  H49  1  0.19800000  0.06570000  0.77260000  1.0
  H  H50  1  0.35130000  0.13190000  0.86240000  1.0
  H  H51  1  0.34450000  0.06950000  0.91850000  1.0
  H  H52  1  0.29960000  0.15380000  0.65810000  1.0
  H  H53  1  0.30970000  0.21810000  0.60360000  1.0
  H  H54  1  0.17560000  0.30020000  0.67250000  1.0
  H  H55  1  0.16830000  0.23590000  0.72720000  1.0
  H  H56  1  0.20120000  0.07230000  0.08280000  1.0
  H  H57  1  0.19540000  0.13460000  0.14000000  1.0
  H  H58  1  0.31130000  0.05200000  0.24010000  1.0
  H  H59  1  0.31800000  0.98940000  0.18280000  1.0
  H  H60  1  0.18620000  0.21850000  0.26140000  1.0
  H  H61  1  0.17750000  0.28450000  0.31480000  1.0
  H  H62  1  0.30000000  0.21040000  0.41860000  1.0
  H  H63  1  0.30510000  0.14280000  0.36590000  1.0
  H  H64  1  0.04700000  0.66060000  0.56940000  1.0
  H  H65  1  0.16790000  0.66666667  0.56990000  1.0
  H  H66  1  0.17240000  0.52930000  0.51480000  1.0
  H  H67  1  0.05150000  0.52270000  0.51520000  1.0
  H  H68  1  0.37150000  0.67940000  0.47500000  1.0
  H  H69  1  0.49270000  0.68040000  0.47380000  1.0
  H  H70  1  0.50470000  0.53970000  0.52250000  1.0
  H  H71  1  0.38360000  0.53820000  0.52270000  1.0
  H  H72  1  0.69210000  0.49740000  0.32860000  1.0
  H  H73  1  0.69800000  0.43430000  0.27260000  1.0
  H  H74  1  0.85130000  0.36810000  0.36240000  1.0
  H  H75  1  0.84450000  0.43050000  0.41850000  1.0
  H  H76  1  0.79960000  0.34620000  0.15810000  1.0
  H  H77  1  0.80970000  0.28190000  0.10360000  1.0
  H  H78  1  0.67560000  0.19980000  0.17250000  1.0
  H  H79  1  0.66830000  0.26410000  0.22720000  1.0
  H  H80  1  0.70120000  0.42770000  0.58280000  1.0
  H  H81  1  0.69540000  0.36540000  0.64000000  1.0
  H  H82  1  0.81130000  0.44800000  0.74010000  1.0
  H  H83  1  0.81800000  0.51060000  0.68280000  1.0
  H  H84  1  0.68620000  0.28150000  0.76140000  1.0
  H  H85  1  0.67750000  0.21550000  0.81480000  1.0
  H  H86  1  0.80000000  0.28960000  0.91860000  1.0
  H  H87  1  0.80510000  0.35720000  0.86590000  1.0
  H  H88  1  0.45300000  0.16060000  0.93060000  1.0
  H  H89  1  0.33210000  0.16660000  0.93010000  1.0
  H  H90  1  0.32760000  0.02930000  0.98520000  1.0
  H  H91  1  0.44850000  0.02270000  0.98480000  1.0
  H  H92  1  0.12850000  0.17940000  0.02500000  1.0
  H  H93  1  0.00730000  0.18040000  0.02620000  1.0
  H  H94  1  0.99530000  0.03970000  0.97750000  1.0
  H  H95  1  0.11640000  0.03820000  0.97730000  1.0
  H  H96  1  0.80790000  0.99740000  0.17140000  1.0
  H  H97  1  0.80200000  0.93430000  0.22740000  1.0
  H  H98  1  0.64870000  0.86810000  0.13760000  1.0
  H  H99  1  0.65550000  0.93050000  0.08150000  1.0
  H  H100  1  0.70040000  0.84620000  0.34190000  1.0
  H  H101  1  0.69030000  0.78190000  0.39640000  1.0
  H  H102  1  0.82440000  0.69980000  0.32750000  1.0
  H  H103  1  0.83170000  0.76410000  0.27280000  1.0
  H  H104  1  0.79880000  0.92770000  0.91720000  1.0
  H  H105  1  0.80460000  0.86540000  0.86000000  1.0
  H  H106  1  0.68870000  0.94800000  0.75990000  1.0
  H  H107  1  0.68200000  0.01060000  0.81720000  1.0
  H  H108  1  0.81380000  0.78150000  0.73860000  1.0
  H  H109  1  0.82250000  0.71550000  0.68520000  1.0
  H  H110  1  0.70000000  0.78960000  0.58140000  1.0
  H  H111  1  0.69490000  0.85720000  0.63410000  1.0
  C  C112  1  0.04148000  0.41068000  0.45930000  1.0
  C  C113  1  0.96268000  0.40942000  0.45739000  1.0
  C  C114  1  0.92773000  0.36591000  0.44130000  1.0
  C  C115  1  0.85548000  0.36225000  0.44127000  1.0
  C  C116  1  0.81762000  0.40137000  0.45781000  1.0
  C  C117  1  0.85278000  0.44436000  0.47409000  1.0
  C  C118  1  0.92522000  0.44833000  0.47386000  1.0
  C  C119  1  0.73983000  0.39761000  0.45745000  1.0
  C  C120  1  0.63483000  0.39121000  0.50121000  1.0
  C  C121  1  0.60188000  0.34865000  0.51565000  1.0
  C  C122  1  0.52909000  0.34797000  0.51614000  1.0
  C  C123  1  0.48903000  0.38932000  0.50175000  1.0
  C  C124  1  0.52208000  0.43235000  0.48707000  1.0
  C  C125  1  0.59450000  0.43323000  0.48691000  1.0
  C  C126  1  0.41109000  0.38676000  0.50112000  1.0
  C  C127  1  0.23693000  0.48830000  0.58528000  1.0
  C  C128  1  0.23201000  0.52927000  0.62062000  1.0
  C  C129  1  0.27602000  0.52855000  0.66455000  1.0
  C  C130  1  0.27267000  0.56627000  0.69815000  1.0
  C  C131  1  0.22507000  0.60503000  0.68772000  1.0
  C  C132  1  0.18072000  0.60613000  0.64422000  1.0
  C  C133  1  0.18477000  0.56862000  0.61087000  1.0
  C  C134  1  0.26795000  0.64867000  0.76387000  1.0
  C  C135  1  0.26593000  0.68917000  0.80122000  1.0
  C  C136  1  0.22450000  0.68343000  0.83883000  1.0
  C  C137  1  0.21899000  0.72166000  0.87188000  1.0
  C  C138  1  0.25703000  0.76526000  0.86768000  1.0
  C  C139  1  0.29926000  0.77093000  0.83031000  1.0
  C  C140  1  0.30337000  0.73243000  0.79749000  1.0
  C  C141  1  0.25489000  0.80333000  0.90527000  1.0
  C  C142  1  0.23390000  0.48632000  0.40938000  1.0
  C  C143  1  0.24014000  0.52493000  0.37276000  1.0
  C  C144  1  0.27671000  0.56817000  0.38573000  1.0
  C  C145  1  0.28026000  0.60545000  0.35151000  1.0
  C  C146  1  0.24753000  0.59897000  0.30496000  1.0
  C  C147  1  0.21060000  0.55594000  0.29143000  1.0
  C  C148  1  0.20673000  0.51846000  0.32571000  1.0
  C  C149  1  0.25082000  0.64097000  0.27086000  1.0
  C  C150  1  0.25475000  0.67465000  0.19163000  1.0
  C  C151  1  0.29179000  0.71653000  0.20694000  1.0
  C  C152  1  0.29654000  0.75643000  0.17506000  1.0
  C  C153  1  0.26160000  0.75339000  0.12764000  1.0
  C  C154  1  0.22359000  0.71182000  0.11273000  1.0
  C  C155  1  0.21990000  0.67122000  0.14437000  1.0
  C  C156  1  0.26779000  0.79672000  0.09421000  1.0
  C  C157  1  0.45852000  0.91068000  0.04070000  1.0
  C  C158  1  0.53732000  0.90942000  0.04261000  1.0
  C  C159  1  0.57227000  0.86591000  0.05870000  1.0
  C  C160  1  0.64452000  0.86225000  0.05873000  1.0
  C  C161  1  0.68238000  0.90137000  0.04219000  1.0
  C  C162  1  0.64722000  0.94436000  0.02591000  1.0
  C  C163  1  0.57478000  0.94833000  0.02614000  1.0
  C  C164  1  0.76017000  0.89761000  0.04255000  1.0
  C  C165  1  0.86517000  0.89121000  0.99879000  1.0
  C  C166  1  0.89812000  0.84865000  0.98435000  1.0
  C  C167  1  0.97091000  0.84797000  0.98386000  1.0
  C  C168  1  0.01097000  0.88932000  0.99825000  1.0
  C  C169  1  0.97792000  0.93235000  0.01293000  1.0
  C  C170  1  0.90550000  0.93323000  0.01309000  1.0
  C  C171  1  0.08891000  0.88676000  0.99888000  1.0
  C  C172  1  0.26307000  0.98830000  0.91472000  1.0
  C  C173  1  0.26799000  0.02927000  0.87938000  1.0
  C  C174  1  0.22398000  0.02855000  0.83545000  1.0
  C  C175  1  0.22733000  0.06627000  0.80185000  1.0
  C  C176  1  0.27493000  0.10503000  0.81228000  1.0
  C  C177  1  0.31928000  0.10613000  0.85578000  1.0
  C  C178  1  0.31523000  0.06862000  0.88913000  1.0
  C  C179  1  0.23205000  0.14867000  0.73613000  1.0
  C  C180  1  0.23407000  0.18917000  0.69878000  1.0
  C  C181  1  0.27550000  0.18343000  0.66117000  1.0
  C  C182  1  0.28101000  0.22166000  0.62812000  1.0
  C  C183  1  0.24297000  0.26526000  0.63232000  1.0
  C  C184  1  0.20074000  0.27093000  0.66969000  1.0
  C  C185  1  0.19663000  0.23243000  0.70251000  1.0
  C  C186  1  0.24511000  0.30333000  0.59473000  1.0
  C  C187  1  0.26610000  0.98632000  0.09062000  1.0
  C  C188  1  0.25986000  0.02493000  0.12724000  1.0
  C  C189  1  0.22329000  0.06817000  0.11427000  1.0
  C  C190  1  0.21974000  0.10545000  0.14849000  1.0
  C  C191  1  0.25247000  0.09897000  0.19504000  1.0
  C  C192  1  0.28940000  0.05594000  0.20857000  1.0
  C  C193  1  0.29327000  0.01846000  0.17429000  1.0
  C  C194  1  0.24918000  0.14097000  0.22914000  1.0
  C  C195  1  0.24525000  0.17465000  0.30837000  1.0
  C  C196  1  0.20821000  0.21653000  0.29306000  1.0
  C  C197  1  0.20346000  0.25643000  0.32494000  1.0
  C  C198  1  0.23840000  0.25339000  0.37236000  1.0
  C  C199  1  0.27641000  0.21182000  0.38727000  1.0
  C  C200  1  0.28010000  0.17122000  0.35563000  1.0
  C  C201  1  0.23221000  0.29672000  0.40579000  1.0
  C  C202  1  0.95852000  0.58932000  0.54070000  1.0
  C  C203  1  0.03732000  0.59058000  0.54261000  1.0
  C  C204  1  0.07227000  0.63409000  0.55870000  1.0
  C  C205  1  0.14452000  0.63775000  0.55873000  1.0
  C  C206  1  0.18238000  0.59863000  0.54219000  1.0
  C  C207  1  0.14722000  0.55564000  0.52591000  1.0
  C  C208  1  0.07478000  0.55167000  0.52614000  1.0
  C  C209  1  0.26017000  0.60239000  0.54255000  1.0
  C  C210  1  0.36517000  0.60879000  0.49879000  1.0
  C  C211  1  0.39812000  0.65135000  0.48435000  1.0
  C  C212  1  0.47091000  0.65203000  0.48386000  1.0
  C  C213  1  0.51097000  0.61068000  0.49825000  1.0
  C  C214  1  0.47792000  0.56765000  0.51293000  1.0
  C  C215  1  0.40550000  0.56677000  0.51309000  1.0
  C  C216  1  0.58891000  0.61324000  0.49888000  1.0
  C  C217  1  0.76307000  0.51170000  0.41472000  1.0
  C  C218  1  0.76799000  0.47073000  0.37938000  1.0
  C  C219  1  0.72398000  0.47145000  0.33545000  1.0
  C  C220  1  0.72733000  0.43373000  0.30185000  1.0
  C  C221  1  0.77493000  0.39497000  0.31228000  1.0
  C  C222  1  0.81928000  0.39387000  0.35578000  1.0
  C  C223  1  0.81523000  0.43138000  0.38913000  1.0
  C  C224  1  0.73205000  0.35133000  0.23613000  1.0
  C  C225  1  0.73407000  0.31083000  0.19878000  1.0
  C  C226  1  0.77550000  0.31657000  0.16117000  1.0
  C  C227  1  0.78101000  0.27834000  0.12812000  1.0
  C  C228  1  0.74297000  0.23474000  0.13232000  1.0
  C  C229  1  0.70074000  0.22907000  0.16969000  1.0
  C  C230  1  0.69663000  0.26757000  0.20251000  1.0
  C  C231  1  0.74511000  0.19667000  0.09473000  1.0
  C  C232  1  0.76610000  0.51368000  0.59062000  1.0
  C  C233  1  0.75986000  0.47507000  0.62724000  1.0
  C  C234  1  0.72329000  0.43183000  0.61427000  1.0
  C  C235  1  0.71974000  0.39455000  0.64849000  1.0
  C  C236  1  0.75247000  0.40103000  0.69504000  1.0
  C  C237  1  0.78940000  0.44406000  0.70857000  1.0
  C  C238  1  0.79327000  0.48154000  0.67429000  1.0
  C  C239  1  0.74918000  0.35903000  0.72914000  1.0
  C  C240  1  0.74525000  0.32535000  0.80837000  1.0
  C  C241  1  0.70821000  0.28347000  0.79306000  1.0
  C  C242  1  0.70346000  0.24357000  0.82494000  1.0
  C  C243  1  0.73840000  0.24661000  0.87236000  1.0
  C  C244  1  0.77641000  0.28818000  0.88727000  1.0
  C  C245  1  0.78010000  0.32878000  0.85563000  1.0
  C  C246  1  0.73221000  0.20328000  0.90579000  1.0
  C  C247  1  0.54148000  0.08932000  0.95930000  1.0
  C  C248  1  0.46268000  0.09058000  0.95739000  1.0
  C  C249  1  0.42773000  0.13409000  0.94130000  1.0
  C  C250  1  0.35548000  0.13775000  0.94127000  1.0
  C  C251  1  0.31762000  0.09863000  0.95781000  1.0
  C  C252  1  0.35278000  0.05564000  0.97409000  1.0
  C  C253  1  0.42522000  0.05167000  0.97386000  1.0
  C  C254  1  0.23983000  0.10239000  0.95745000  1.0
  C  C255  1  0.13483000  0.10879000  0.00121000  1.0
  C  C256  1  0.10188000  0.15135000  0.01565000  1.0
  C  C257  1  0.02909000  0.15203000  0.01614000  1.0
  C  C258  1  0.98903000  0.11068000  0.00175000  1.0
  C  C259  1  0.02208000  0.06765000  0.98707000  1.0
  C  C260  1  0.09450000  0.06677000  0.98691000  1.0
  C  C261  1  0.91109000  0.11324000  0.00112000  1.0
  C  C262  1  0.73693000  0.01170000  0.08528000  1.0
  C  C263  1  0.73201000  0.97073000  0.12062000  1.0
  C  C264  1  0.77602000  0.97145000  0.16455000  1.0
  C  C265  1  0.77267000  0.93373000  0.19815000  1.0
  C  C266  1  0.72507000  0.89497000  0.18772000  1.0
  C  C267  1  0.68072000  0.89387000  0.14422000  1.0
  C  C268  1  0.68477000  0.93138000  0.11087000  1.0
  C  C269  1  0.76795000  0.85133000  0.26387000  1.0
  C  C270  1  0.76593000  0.81083000  0.30122000  1.0
  C  C271  1  0.72450000  0.81657000  0.33883000  1.0
  C  C272  1  0.71899000  0.77834000  0.37188000  1.0
  C  C273  1  0.75703000  0.73474000  0.36768000  1.0
  C  C274  1  0.79926000  0.72907000  0.33031000  1.0
  C  C275  1  0.80337000  0.76757000  0.29749000  1.0
  C  C276  1  0.75489000  0.69667000  0.40527000  1.0
  C  C277  1  0.73390000  0.01368000  0.90938000  1.0
  C  C278  1  0.74014000  0.97507000  0.87276000  1.0
  C  C279  1  0.77671000  0.93183000  0.88573000  1.0
  C  C280  1  0.78026000  0.89455000  0.85151000  1.0
  C  C281  1  0.74753000  0.90103000  0.80496000  1.0
  C  C282  1  0.71060000  0.94406000  0.79143000  1.0
  C  C283  1  0.70673000  0.98154000  0.82571000  1.0
  C  C284  1  0.75082000  0.85903000  0.77086000  1.0
  C  C285  1  0.75475000  0.82535000  0.69163000  1.0
  C  C286  1  0.79179000  0.78347000  0.70694000  1.0
  C  C287  1  0.79654000  0.74357000  0.67506000  1.0
  C  C288  1  0.76160000  0.74661000  0.62764000  1.0
  C  C289  1  0.72359000  0.78818000  0.61273000  1.0
  C  C290  1  0.71990000  0.82878000  0.64437000  1.0
  C  C291  1  0.76779000  0.70328000  0.59421000  1.0
  N  N292  1  0.71176000  0.39440000  0.49946000  1.0
  N  N293  1  0.24617000  0.63427000  0.22639000  1.0
  N  N294  1  0.22571000  0.64789000  0.72319000  1.0
  N  N295  1  0.78824000  0.89440000  0.00054000  1.0
  N  N296  1  0.25383000  0.13427000  0.27361000  1.0
  N  N297  1  0.27429000  0.14789000  0.77681000  1.0
  N  N298  1  0.28824000  0.60560000  0.50054000  1.0
  N  N299  1  0.75383000  0.36573000  0.77361000  1.0
  N  N300  1  0.77429000  0.35211000  0.27681000  1.0
  N  N301  1  0.21176000  0.10560000  0.99946000  1.0
  N  N302  1  0.74617000  0.86573000  0.72639000  1.0
  N  N303  1  0.72571000  0.85211000  0.22319000  1.0
  O  O304  1  0.22413000  0.38989000  0.49826000  1.0
  O  O305  1  0.06887000  0.38852000  0.42729000  1.0
  O  O306  1  0.69990000  0.39860000  0.41816000  1.0
  O  O307  1  0.38227000  0.34723000  0.50498000  1.0
  O  O308  1  0.37670000  0.42669000  0.49985000  1.0
  O  O309  1  0.19216000  0.45427000  0.58495000  1.0
  O  O310  1  0.28149000  0.49268000  0.55778000  1.0
  O  O311  1  0.31293000  0.61450000  0.77377000  1.0
  O  O312  1  0.21974000  0.79094000  0.93866000  1.0
  O  O313  1  0.19952000  0.44698000  0.39707000  1.0
  O  O314  1  0.26406000  0.49524000  0.45123000  1.0
  O  O315  1  0.25629000  0.68809000  0.27575000  1.0
  O  O316  1  0.23635000  0.79463000  0.05221000  1.0
  O  O317  1  0.30608000  0.83182000  0.10763000  1.0
  O  O318  1  0.07788000  0.43523000  0.49014000  1.0
  O  O319  1  0.28453000  0.84280000  0.89997000  1.0
  O  O320  1  0.27587000  0.88989000  0.00174000  1.0
  O  O321  1  0.43113000  0.88852000  0.07271000  1.0
  O  O322  1  0.80010000  0.89860000  0.08184000  1.0
  O  O323  1  0.11773000  0.84723000  0.99502000  1.0
  O  O324  1  0.12330000  0.92669000  0.00015000  1.0
  O  O325  1  0.30784000  0.95427000  0.91505000  1.0
  O  O326  1  0.21851000  0.99268000  0.94222000  1.0
  O  O327  1  0.18707000  0.11450000  0.72623000  1.0
  O  O328  1  0.28026000  0.29094000  0.56134000  1.0
  O  O329  1  0.30048000  0.94698000  0.10293000  1.0
  O  O330  1  0.23594000  0.99524000  0.04877000  1.0
  O  O331  1  0.24371000  0.18809000  0.22425000  1.0
  O  O332  1  0.26365000  0.29463000  0.44779000  1.0
  O  O333  1  0.19392000  0.33182000  0.39237000  1.0
  O  O334  1  0.42212000  0.93523000  0.00986000  1.0
  O  O335  1  0.21547000  0.34280000  0.60003000  1.0
  O  O336  1  0.77587000  0.61011000  0.50174000  1.0
  O  O337  1  0.93113000  0.61148000  0.57271000  1.0
  O  O338  1  0.30010000  0.60140000  0.58184000  1.0
  O  O339  1  0.61773000  0.65277000  0.49502000  1.0
  O  O340  1  0.62330000  0.57331000  0.50015000  1.0
  O  O341  1  0.80784000  0.54573000  0.41505000  1.0
  O  O342  1  0.71851000  0.50732000  0.44222000  1.0
  O  O343  1  0.68707000  0.38550000  0.22623000  1.0
  O  O344  1  0.78026000  0.20906000  0.06134000  1.0
  O  O345  1  0.80048000  0.55302000  0.60293000  1.0
  O  O346  1  0.73594000  0.50476000  0.54877000  1.0
  O  O347  1  0.74371000  0.31191000  0.72425000  1.0
  O  O348  1  0.76365000  0.20537000  0.94779000  1.0
  O  O349  1  0.69392000  0.16818000  0.89237000  1.0
  O  O350  1  0.92212000  0.56477000  0.50986000  1.0
  O  O351  1  0.71547000  0.15720000  0.10003000  1.0
  O  O352  1  0.72413000  0.11011000  0.99826000  1.0
  O  O353  1  0.56887000  0.11148000  0.92729000  1.0
  O  O354  1  0.19990000  0.10140000  0.91816000  1.0
  O  O355  1  0.88227000  0.15277000  0.00498000  1.0
  O  O356  1  0.87670000  0.07331000  0.99985000  1.0
  O  O357  1  0.69216000  0.04573000  0.08495000  1.0
  O  O358  1  0.78149000  0.00732000  0.05778000  1.0
  O  O359  1  0.81293000  0.88550000  0.27377000  1.0
  O  O360  1  0.71974000  0.70906000  0.43866000  1.0
  O  O361  1  0.69952000  0.05302000  0.89707000  1.0
  O  O362  1  0.76406000  0.00476000  0.95123000  1.0
  O  O363  1  0.75629000  0.81191000  0.77575000  1.0
  O  O364  1  0.73635000  0.70537000  0.55221000  1.0
  O  O365  1  0.80608000  0.66818000  0.60763000  1.0
  O  O366  1  0.57788000  0.06477000  0.99014000  1.0
  O  O367  1  0.78453000  0.65720000  0.39997000  1.0
