# generated using pymatgen
data_Er2H6(C7O4)3
_symmetry_space_group_name_H-M   'P 1'
_cell_length_a   9.84750000
_cell_length_b   29.05800000
_cell_length_c   10.81510000
_cell_angle_alpha   90.00000000
_cell_angle_beta   92.31100000
_cell_angle_gamma   90.00000000
_symmetry_Int_Tables_number   1
_chemical_formula_structural   Er2H6(C7O4)3
_chemical_formula_sum   'Er8 H24 C84 O48'
_cell_volume   3092.20929097
_cell_formula_units_Z   4
loop_
 _symmetry_equiv_pos_site_id
 _symmetry_equiv_pos_as_xyz
  1  'x, y, z'
loop_
 _atom_site_type_symbol
 _atom_site_label
 _atom_site_symmetry_multiplicity
 _atom_site_fract_x
 _atom_site_fract_y
 _atom_site_fract_z
 _atom_site_occupancy
  Er  Er0  1  0.45512000  0.41877000  0.95764000  1.0
  Er  Er1  1  0.46109000  0.25170000  0.23726000  1.0
  Er  Er2  1  0.54488000  0.91877000  0.54236000  1.0
  Er  Er3  1  0.53891000  0.75170000  0.26274000  1.0
  Er  Er4  1  0.54488000  0.58123000  0.04236000  1.0
  Er  Er5  1  0.53891000  0.74830000  0.76274000  1.0
  Er  Er6  1  0.45512000  0.08123000  0.45764000  1.0
  Er  Er7  1  0.46109000  0.24830000  0.73726000  1.0
  H  H8  1  0.01440000  0.40820000  0.83040000  1.0
  H  H9  1  0.78080000  0.39390000  0.83600000  1.0
  H  H10  1  0.90770000  0.20930000  0.16030000  1.0
  H  H11  1  0.13650000  0.21300000  0.10890000  1.0
  H  H12  1  0.05760000  0.48330000  0.31410000  1.0
  H  H13  1  0.17580000  0.51410000  0.73300000  1.0
  H  H14  1  0.98560000  0.90820000  0.66960000  1.0
  H  H15  1  0.21920000  0.89390000  0.66400000  1.0
  H  H16  1  0.09230000  0.70930000  0.33970000  1.0
  H  H17  1  0.86350000  0.71300000  0.39110000  1.0
  H  H18  1  0.94240000  0.98330000  0.18590000  1.0
  H  H19  1  0.82420000  0.01410000  0.76700000  1.0
  H  H20  1  0.98560000  0.59180000  0.16960000  1.0
  H  H21  1  0.21920000  0.60610000  0.16400000  1.0
  H  H22  1  0.09230000  0.79070000  0.83970000  1.0
  H  H23  1  0.86350000  0.78700000  0.89110000  1.0
  H  H24  1  0.94240000  0.51670000  0.68590000  1.0
  H  H25  1  0.82420000  0.48590000  0.26700000  1.0
  H  H26  1  0.01440000  0.09180000  0.33040000  1.0
  H  H27  1  0.78080000  0.10610000  0.33600000  1.0
  H  H28  1  0.90770000  0.29070000  0.66030000  1.0
  H  H29  1  0.13650000  0.28700000  0.60890000  1.0
  H  H30  1  0.05760000  0.01670000  0.81410000  1.0
  H  H31  1  0.17580000  0.98590000  0.23300000  1.0
  C  C32  1  0.07640000  0.34910000  0.91230000  1.0
  C  C33  1  0.98350000  0.38040000  0.86620000  1.0
  C  C34  1  0.84320000  0.37210000  0.87100000  1.0
  C  C35  1  0.79500000  0.33340000  0.92480000  1.0
  C  C36  1  0.88840000  0.30156000  0.98420000  1.0
  C  C37  1  0.84500000  0.26380000  0.06000000  1.0
  C  C38  1  0.93700000  0.23310000  0.10740000  1.0
  C  C39  1  0.07510000  0.23610000  0.07940000  1.0
  C  C40  1  0.12230000  0.27168000  0.01040000  1.0
  C  C41  1  0.03190000  0.30716000  0.96740000  1.0
  C  C42  1  0.21930000  0.36584000  0.92000000  1.0
  C  C43  1  0.64790000  0.32250000  0.90170000  1.0
  C  C44  1  0.70420000  0.26150000  0.10600000  1.0
  C  C45  1  0.26820000  0.26743000  0.96970000  1.0
  C  C46  1  0.02620000  0.48660000  0.23040000  1.0
  C  C47  1  0.11820000  0.48940000  0.14020000  1.0
  C  C48  1  0.26350000  0.47700000  0.17310000  1.0
  C  C49  1  0.07140000  0.49878000  0.01400000  1.0
  C  C50  1  0.16150000  0.50640000  0.91700000  1.0
  C  C51  1  0.31120000  0.51460000  0.94100000  1.0
  C  C52  1  0.11360000  0.51160000  0.79760000  1.0
  C  C53  1  0.92360000  0.84910000  0.58770000  1.0
  C  C54  1  0.01650000  0.88040000  0.63380000  1.0
  C  C55  1  0.15680000  0.87210000  0.62900000  1.0
  C  C56  1  0.20500000  0.83340000  0.57520000  1.0
  C  C57  1  0.11160000  0.80156000  0.51580000  1.0
  C  C58  1  0.15500000  0.76380000  0.44000000  1.0
  C  C59  1  0.06300000  0.73310000  0.39260000  1.0
  C  C60  1  0.92490000  0.73610000  0.42060000  1.0
  C  C61  1  0.87770000  0.77168000  0.48960000  1.0
  C  C62  1  0.96810000  0.80716000  0.53260000  1.0
  C  C63  1  0.78070000  0.86584000  0.58000000  1.0
  C  C64  1  0.35210000  0.82250000  0.59830000  1.0
  C  C65  1  0.29580000  0.76150000  0.39400000  1.0
  C  C66  1  0.73180000  0.76743000  0.53030000  1.0
  C  C67  1  0.97380000  0.98660000  0.26960000  1.0
  C  C68  1  0.88180000  0.98940000  0.35980000  1.0
  C  C69  1  0.73650000  0.97700000  0.32690000  1.0
  C  C70  1  0.92860000  0.99878000  0.48600000  1.0
  C  C71  1  0.83850000  0.00640000  0.58300000  1.0
  C  C72  1  0.68880000  0.01460000  0.55900000  1.0
  C  C73  1  0.88640000  0.01160000  0.70240000  1.0
  C  C74  1  0.92360000  0.65090000  0.08770000  1.0
  C  C75  1  0.01650000  0.61960000  0.13380000  1.0
  C  C76  1  0.15680000  0.62790000  0.12900000  1.0
  C  C77  1  0.20500000  0.66666667  0.07520000  1.0
  C  C78  1  0.11160000  0.69844000  0.01580000  1.0
  C  C79  1  0.15500000  0.73620000  0.94000000  1.0
  C  C80  1  0.06300000  0.76690000  0.89260000  1.0
  C  C81  1  0.92490000  0.76390000  0.92060000  1.0
  C  C82  1  0.87770000  0.72832000  0.98960000  1.0
  C  C83  1  0.96810000  0.69284000  0.03260000  1.0
  C  C84  1  0.78070000  0.63416000  0.08000000  1.0
  C  C85  1  0.35210000  0.67750000  0.09830000  1.0
  C  C86  1  0.29580000  0.73850000  0.89400000  1.0
  C  C87  1  0.73180000  0.73257000  0.03030000  1.0
  C  C88  1  0.97380000  0.51340000  0.76960000  1.0
  C  C89  1  0.88180000  0.51060000  0.85980000  1.0
  C  C90  1  0.73650000  0.52300000  0.82690000  1.0
  C  C91  1  0.92860000  0.50122000  0.98600000  1.0
  C  C92  1  0.83850000  0.49360000  0.08300000  1.0
  C  C93  1  0.68880000  0.48540000  0.05900000  1.0
  C  C94  1  0.88640000  0.48840000  0.20240000  1.0
  C  C95  1  0.07640000  0.15090000  0.41230000  1.0
  C  C96  1  0.98350000  0.11960000  0.36620000  1.0
  C  C97  1  0.84320000  0.12790000  0.37100000  1.0
  C  C98  1  0.79500000  0.16660000  0.42480000  1.0
  C  C99  1  0.88840000  0.19844000  0.48420000  1.0
  C  C100  1  0.84500000  0.23620000  0.56000000  1.0
  C  C101  1  0.93700000  0.26690000  0.60740000  1.0
  C  C102  1  0.07510000  0.26390000  0.57940000  1.0
  C  C103  1  0.12230000  0.22832000  0.51040000  1.0
  C  C104  1  0.03190000  0.19284000  0.46740000  1.0
  C  C105  1  0.21930000  0.13416000  0.42000000  1.0
  C  C106  1  0.64790000  0.17750000  0.40170000  1.0
  C  C107  1  0.70420000  0.23850000  0.60600000  1.0
  C  C108  1  0.26820000  0.23257000  0.46970000  1.0
  C  C109  1  0.02620000  0.01340000  0.73040000  1.0
  C  C110  1  0.11820000  0.01060000  0.64020000  1.0
  C  C111  1  0.26350000  0.02300000  0.67310000  1.0
  C  C112  1  0.07140000  0.00122000  0.51400000  1.0
  C  C113  1  0.16150000  0.99360000  0.41700000  1.0
  C  C114  1  0.31120000  0.98540000  0.44100000  1.0
  C  C115  1  0.11360000  0.98840000  0.29760000  1.0
  O  O116  1  0.26440000  0.39064000  0.83350000  1.0
  O  O117  1  0.29300000  0.35851000  0.01520000  1.0
  O  O118  1  0.56340000  0.35413000  0.90390000  1.0
  O  O119  1  0.61730000  0.28182000  0.87120000  1.0
  O  O120  1  0.64660000  0.29673000  0.14760000  1.0
  O  O121  1  0.64620000  0.22235000  0.11260000  1.0
  O  O122  1  0.28820000  0.27296000  0.85780000  1.0
  O  O123  1  0.35750000  0.25534000  0.04920000  1.0
  O  O124  1  0.31550000  0.49100000  0.27500000  1.0
  O  O125  1  0.32210000  0.45016000  0.10160000  1.0
  O  O126  1  0.34000000  0.54627000  0.01520000  1.0
  O  O127  1  0.39500000  0.49090000  0.88390000  1.0
  O  O128  1  0.73560000  0.89064000  0.66650000  1.0
  O  O129  1  0.70700000  0.85851000  0.48480000  1.0
  O  O130  1  0.43660000  0.85413000  0.59610000  1.0
  O  O131  1  0.38270000  0.78182000  0.62880000  1.0
  O  O132  1  0.35340000  0.79673000  0.35240000  1.0
  O  O133  1  0.35380000  0.72235000  0.38740000  1.0
  O  O134  1  0.71180000  0.77296000  0.64220000  1.0
  O  O135  1  0.64250000  0.75534000  0.45080000  1.0
  O  O136  1  0.68450000  0.99100000  0.22500000  1.0
  O  O137  1  0.67790000  0.95016000  0.39840000  1.0
  O  O138  1  0.66000000  0.04627000  0.48480000  1.0
  O  O139  1  0.60500000  0.99090000  0.61610000  1.0
  O  O140  1  0.73560000  0.60936000  0.16650000  1.0
  O  O141  1  0.70700000  0.64149000  0.98480000  1.0
  O  O142  1  0.43660000  0.64587000  0.09610000  1.0
  O  O143  1  0.38270000  0.71818000  0.12880000  1.0
  O  O144  1  0.35340000  0.70327000  0.85240000  1.0
  O  O145  1  0.35380000  0.77765000  0.88740000  1.0
  O  O146  1  0.71180000  0.72704000  0.14220000  1.0
  O  O147  1  0.64250000  0.74466000  0.95080000  1.0
  O  O148  1  0.68450000  0.50900000  0.72500000  1.0
  O  O149  1  0.67790000  0.54984000  0.89840000  1.0
  O  O150  1  0.66000000  0.45373000  0.98480000  1.0
  O  O151  1  0.60500000  0.50910000  0.11610000  1.0
  O  O152  1  0.26440000  0.10936000  0.33350000  1.0
  O  O153  1  0.29300000  0.14149000  0.51520000  1.0
  O  O154  1  0.56340000  0.14587000  0.40390000  1.0
  O  O155  1  0.61730000  0.21818000  0.37120000  1.0
  O  O156  1  0.64660000  0.20327000  0.64760000  1.0
  O  O157  1  0.64620000  0.27765000  0.61260000  1.0
  O  O158  1  0.28820000  0.22704000  0.35780000  1.0
  O  O159  1  0.35750000  0.24466000  0.54920000  1.0
  O  O160  1  0.31550000  0.00900000  0.77500000  1.0
  O  O161  1  0.32210000  0.04984000  0.60160000  1.0
  O  O162  1  0.34000000  0.95373000  0.51520000  1.0
  O  O163  1  0.39500000  0.00910000  0.38390000  1.0
