# generated using pymatgen
data_Ag2H8C8N5O2
_symmetry_space_group_name_H-M   'P 1'
_cell_length_a   18.50550000
_cell_length_b   18.50550000
_cell_length_c   22.55600000
_cell_angle_alpha   90.00000000
_cell_angle_beta   90.00000000
_cell_angle_gamma   120.00000000
_symmetry_Int_Tables_number   1
_chemical_formula_structural   Ag2H8C8N5O2
_chemical_formula_sum   'Ag36 H144 C144 N90 O36'
_cell_volume   6689.51089186
_cell_formula_units_Z   18
loop_
 _symmetry_equiv_pos_site_id
 _symmetry_equiv_pos_as_xyz
  1  'x, y, z'
loop_
 _atom_site_type_symbol
 _atom_site_label
 _atom_site_symmetry_multiplicity
 _atom_site_fract_x
 _atom_site_fract_y
 _atom_site_fract_z
 _atom_site_occupancy
  Ag  Ag0  1  0.89287000  0.14668000  0.34571000  1.0
  Ag  Ag1  1  0.47397000  0.90088000  0.38519000  1.0
  Ag  Ag2  1  0.82012000  0.00273000  0.59868000  1.0
  Ag  Ag3  1  0.83540000  0.83910000  0.47339000  1.0
  Ag  Ag4  1  0.55954000  0.48001000  0.67904000  1.0
  Ag  Ag5  1  0.14064000  0.23421000  0.71852000  1.0
  Ag  Ag6  1  0.48679000  0.33606000  0.93201000  1.0
  Ag  Ag7  1  0.50207000  0.17243000  0.80672000  1.0
  Ag  Ag8  1  0.22620000  0.81335000  0.01238000  1.0
  Ag  Ag9  1  0.80730000  0.56755000  0.05186000  1.0
  Ag  Ag10  1  0.15345000  0.66940000  0.26535000  1.0
  Ag  Ag11  1  0.16873000  0.50577000  0.14006000  1.0
  Ag  Ag12  1  0.85332000  0.74619000  0.34571000  1.0
  Ag  Ag13  1  0.09912000  0.57309000  0.38519000  1.0
  Ag  Ag14  1  0.99727000  0.81739000  0.59868000  1.0
  Ag  Ag15  1  0.16090000  0.99630000  0.47339000  1.0
  Ag  Ag16  1  0.51999000  0.07952000  0.67904000  1.0
  Ag  Ag17  1  0.76579000  0.90642000  0.71852000  1.0
  Ag  Ag18  1  0.66394000  0.15072000  0.93201000  1.0
  Ag  Ag19  1  0.82757000  0.32963000  0.80672000  1.0
  Ag  Ag20  1  0.18665000  0.41286000  0.01238000  1.0
  Ag  Ag21  1  0.43245000  0.23976000  0.05186000  1.0
  Ag  Ag22  1  0.33060000  0.48406000  0.26535000  1.0
  Ag  Ag23  1  0.49423000  0.66297000  0.14006000  1.0
  Ag  Ag24  1  0.25381000  0.10713000  0.34571000  1.0
  Ag  Ag25  1  0.42691000  0.52603000  0.38519000  1.0
  Ag  Ag26  1  0.18261000  0.17988000  0.59868000  1.0
  Ag  Ag27  1  0.00370000  0.16460000  0.47339000  1.0
  Ag  Ag28  1  0.92048000  0.44046000  0.67904000  1.0
  Ag  Ag29  1  0.09358000  0.85936000  0.71852000  1.0
  Ag  Ag30  1  0.84928000  0.51321000  0.93201000  1.0
  Ag  Ag31  1  0.67037000  0.49793000  0.80672000  1.0
  Ag  Ag32  1  0.58714000  0.77380000  0.01238000  1.0
  Ag  Ag33  1  0.76024000  0.19270000  0.05186000  1.0
  Ag  Ag34  1  0.51594000  0.84655000  0.26535000  1.0
  Ag  Ag35  1  0.33703000  0.83127000  0.14006000  1.0
  H  H36  1  0.68530000  0.75450000  0.49780000  1.0
  H  H37  1  0.58920000  0.69380000  0.48140000  1.0
  H  H38  1  0.72660000  0.09390000  0.33400000  1.0
  H  H39  1  0.63660000  0.03320000  0.35160000  1.0
  H  H40  1  0.54800000  0.74450000  0.56360000  1.0
  H  H41  1  0.60220000  0.70380000  0.58470000  1.0
  H  H42  1  0.72220000  0.10990000  0.47990000  1.0
  H  H43  1  0.76900000  0.20680000  0.49650000  1.0
  H  H44  1  0.88070000  0.99500000  0.40430000  1.0
  H  H45  1  0.79610000  0.29170000  0.60270000  1.0
  H  H46  1  0.09510000  0.35460000  0.74050000  1.0
  H  H47  1  0.04110000  0.39170000  0.72240000  1.0
  H  H48  1  0.98250000  0.10390000  0.66760000  1.0
  H  H49  1  0.69570000  0.12780000  0.58060000  1.0
  H  H50  1  0.74350000  0.07570000  0.57720000  1.0
  H  H51  1  0.50520000  0.78090000  0.46460000  1.0
  H  H52  1  0.35197000  0.08783000  0.83113000  1.0
  H  H53  1  0.25587000  0.02713000  0.81473000  1.0
  H  H54  1  0.39327000  0.42723000  0.66733000  1.0
  H  H55  1  0.30327000  0.36653000  0.68493000  1.0
  H  H56  1  0.21467000  0.07783000  0.89693000  1.0
  H  H57  1  0.26887000  0.03713000  0.91803000  1.0
  H  H58  1  0.38887000  0.44323000  0.81323000  1.0
  H  H59  1  0.43567000  0.54013000  0.82983000  1.0
  H  H60  1  0.54737000  0.32833000  0.73763000  1.0
  H  H61  1  0.46277000  0.62503000  0.93603000  1.0
  H  H62  1  0.76177000  0.68793000  0.07383000  1.0
  H  H63  1  0.70777000  0.72503000  0.05573000  1.0
  H  H64  1  0.64917000  0.43723000  0.00093000  1.0
  H  H65  1  0.36237000  0.46113000  0.91393000  1.0
  H  H66  1  0.41017000  0.40903000  0.91053000  1.0
  H  H67  1  0.17187000  0.11423000  0.79793000  1.0
  H  H68  1  0.01863000  0.42117000  0.16447000  1.0
  H  H69  1  0.92253000  0.36047000  0.14807000  1.0
  H  H70  1  0.05993000  0.76057000  0.00067000  1.0
  H  H71  1  0.96993000  0.69987000  0.01827000  1.0
  H  H72  1  0.88133000  0.41117000  0.23027000  1.0
  H  H73  1  0.93553000  0.37047000  0.25137000  1.0
  H  H74  1  0.05553000  0.77657000  0.14657000  1.0
  H  H75  1  0.10233000  0.87347000  0.16317000  1.0
  H  H76  1  0.21403000  0.66167000  0.07097000  1.0
  H  H77  1  0.12943000  0.95837000  0.26937000  1.0
  H  H78  1  0.42843000  0.02127000  0.40717000  1.0
  H  H79  1  0.37443000  0.05837000  0.38907000  1.0
  H  H80  1  0.31583000  0.77057000  0.33427000  1.0
  H  H81  1  0.02903000  0.79447000  0.24727000  1.0
  H  H82  1  0.07683000  0.74237000  0.24387000  1.0
  H  H83  1  0.83853000  0.44757000  0.13127000  1.0
  H  H84  1  0.24550000  0.93080000  0.49780000  1.0
  H  H85  1  0.30620000  0.89540000  0.48140000  1.0
  H  H86  1  0.90610000  0.63270000  0.33400000  1.0
  H  H87  1  0.96680000  0.60340000  0.35160000  1.0
  H  H88  1  0.25550000  0.80350000  0.56360000  1.0
  H  H89  1  0.29620000  0.89840000  0.58470000  1.0
  H  H90  1  0.89010000  0.61230000  0.47990000  1.0
  H  H91  1  0.79320000  0.56220000  0.49650000  1.0
  H  H92  1  0.00500000  0.88570000  0.40430000  1.0
  H  H93  1  0.70830000  0.50440000  0.60270000  1.0
  H  H94  1  0.64540000  0.74050000  0.74050000  1.0
  H  H95  1  0.60830000  0.64940000  0.72240000  1.0
  H  H96  1  0.89610000  0.87860000  0.66760000  1.0
  H  H97  1  0.87220000  0.56790000  0.58060000  1.0
  H  H98  1  0.92430000  0.66780000  0.57720000  1.0
  H  H99  1  0.21910000  0.72430000  0.46460000  1.0
  H  H100  1  0.91217000  0.26413000  0.83113000  1.0
  H  H101  1  0.97287000  0.22873000  0.81473000  1.0
  H  H102  1  0.57277000  0.96603000  0.66733000  1.0
  H  H103  1  0.63347000  0.93673000  0.68493000  1.0
  H  H104  1  0.92217000  0.13683000  0.89693000  1.0
  H  H105  1  0.96287000  0.23173000  0.91803000  1.0
  H  H106  1  0.55677000  0.94563000  0.81323000  1.0
  H  H107  1  0.45987000  0.89553000  0.82983000  1.0
  H  H108  1  0.67167000  0.21903000  0.73763000  1.0
  H  H109  1  0.37497000  0.83773000  0.93603000  1.0
  H  H110  1  0.31207000  0.07383000  0.07383000  1.0
  H  H111  1  0.27497000  0.98273000  0.05573000  1.0
  H  H112  1  0.56277000  0.21193000  0.00093000  1.0
  H  H113  1  0.53887000  0.90123000  0.91393000  1.0
  H  H114  1  0.59097000  0.00113000  0.91053000  1.0
  H  H115  1  0.88577000  0.05763000  0.79793000  1.0
  H  H116  1  0.57883000  0.59747000  0.16447000  1.0
  H  H117  1  0.63953000  0.56207000  0.14807000  1.0
  H  H118  1  0.23943000  0.29937000  0.00067000  1.0
  H  H119  1  0.30013000  0.27007000  0.01827000  1.0
  H  H120  1  0.58883000  0.47017000  0.23027000  1.0
  H  H121  1  0.62953000  0.56507000  0.25137000  1.0
  H  H122  1  0.22343000  0.27897000  0.14657000  1.0
  H  H123  1  0.12653000  0.22887000  0.16317000  1.0
  H  H124  1  0.33833000  0.55237000  0.07097000  1.0
  H  H125  1  0.04163000  0.17107000  0.26937000  1.0
  H  H126  1  0.97873000  0.40717000  0.40717000  1.0
  H  H127  1  0.94163000  0.31607000  0.38907000  1.0
  H  H128  1  0.22943000  0.54527000  0.33427000  1.0
  H  H129  1  0.20553000  0.23457000  0.24727000  1.0
  H  H130  1  0.25763000  0.33447000  0.24387000  1.0
  H  H131  1  0.55243000  0.39097000  0.13127000  1.0
  H  H132  1  0.06920000  0.31470000  0.49780000  1.0
  H  H133  1  0.10460000  0.41080000  0.48140000  1.0
  H  H134  1  0.36730000  0.27340000  0.33400000  1.0
  H  H135  1  0.39660000  0.36340000  0.35160000  1.0
  H  H136  1  0.19650000  0.45200000  0.56360000  1.0
  H  H137  1  0.10160000  0.39780000  0.58470000  1.0
  H  H138  1  0.38770000  0.27780000  0.47990000  1.0
  H  H139  1  0.43780000  0.23100000  0.49650000  1.0
  H  H140  1  0.11430000  0.11930000  0.40430000  1.0
  H  H141  1  0.49560000  0.20390000  0.60270000  1.0
  H  H142  1  0.25950000  0.90490000  0.74050000  1.0
  H  H143  1  0.35060000  0.95890000  0.72240000  1.0
  H  H144  1  0.12140000  0.01750000  0.66760000  1.0
  H  H145  1  0.43210000  0.30430000  0.58060000  1.0
  H  H146  1  0.33220000  0.25650000  0.57720000  1.0
  H  H147  1  0.27570000  0.49480000  0.46460000  1.0
  H  H148  1  0.73587000  0.64803000  0.83113000  1.0
  H  H149  1  0.77127000  0.74413000  0.81473000  1.0
  H  H150  1  0.03397000  0.60673000  0.66733000  1.0
  H  H151  1  0.06327000  0.69673000  0.68493000  1.0
  H  H152  1  0.86317000  0.78533000  0.89693000  1.0
  H  H153  1  0.76827000  0.73113000  0.91803000  1.0
  H  H154  1  0.05437000  0.61113000  0.81323000  1.0
  H  H155  1  0.10447000  0.56433000  0.82983000  1.0
  H  H156  1  0.78097000  0.45263000  0.73763000  1.0
  H  H157  1  0.16227000  0.53723000  0.93603000  1.0
  H  H158  1  0.92617000  0.23823000  0.07383000  1.0
  H  H159  1  0.01727000  0.29223000  0.05573000  1.0
  H  H160  1  0.78807000  0.35083000  0.00093000  1.0
  H  H161  1  0.09877000  0.63763000  0.91393000  1.0
  H  H162  1  0.99887000  0.58983000  0.91053000  1.0
  H  H163  1  0.94237000  0.82813000  0.79793000  1.0
  H  H164  1  0.40253000  0.98137000  0.16447000  1.0
  H  H165  1  0.43793000  0.07747000  0.14807000  1.0
  H  H166  1  0.70063000  0.94007000  0.00067000  1.0
  H  H167  1  0.72993000  0.03007000  0.01827000  1.0
  H  H168  1  0.52983000  0.11867000  0.23027000  1.0
  H  H169  1  0.43493000  0.06447000  0.25137000  1.0
  H  H170  1  0.72103000  0.94447000  0.14657000  1.0
  H  H171  1  0.77113000  0.89767000  0.16317000  1.0
  H  H172  1  0.44763000  0.78597000  0.07097000  1.0
  H  H173  1  0.82893000  0.87057000  0.26937000  1.0
  H  H174  1  0.59283000  0.57157000  0.40717000  1.0
  H  H175  1  0.68393000  0.62557000  0.38907000  1.0
  H  H176  1  0.45473000  0.68417000  0.33427000  1.0
  H  H177  1  0.76543000  0.97097000  0.24727000  1.0
  H  H178  1  0.66553000  0.92317000  0.24387000  1.0
  H  H179  1  0.60903000  0.16147000  0.13127000  1.0
  C  C180  1  0.71410000  0.99990000  0.37890000  1.0
  C  C181  1  0.62910000  0.74870000  0.49880000  1.0
  C  C182  1  0.66330000  0.83110000  0.59570000  1.0
  C  C183  1  0.69370000  0.88140000  0.43640000  1.0
  C  C184  1  0.60470000  0.75160000  0.56310000  1.0
  C  C185  1  0.66030000  0.92450000  0.40870000  1.0
  C  C186  1  0.76790000  0.15350000  0.50390000  1.0
  C  C187  1  0.85100000  0.16230000  0.48330000  1.0
  C  C188  1  0.82250000  0.97560000  0.40600000  1.0
  C  C189  1  0.83130000  0.27230000  0.61770000  1.0
  C  C190  1  0.93020000  0.26760000  0.66180000  1.0
  C  C191  1  0.00200000  0.28180000  0.69210000  1.0
  C  C192  1  0.88300000  0.19190000  0.63450000  1.0
  C  C193  1  0.96820000  0.14650000  0.66540000  1.0
  C  C194  1  0.74910000  0.13100000  0.56990000  1.0
  C  C195  1  0.55940000  0.81990000  0.45050000  1.0
  C  C196  1  0.38077000  0.33323000  0.71223000  1.0
  C  C197  1  0.29577000  0.08203000  0.83213000  1.0
  C  C198  1  0.32997000  0.16443000  0.92903000  1.0
  C  C199  1  0.36037000  0.21473000  0.76973000  1.0
  C  C200  1  0.27137000  0.08493000  0.89643000  1.0
  C  C201  1  0.32697000  0.25783000  0.74203000  1.0
  C  C202  1  0.43457000  0.48683000  0.83723000  1.0
  C  C203  1  0.51767000  0.49563000  0.81663000  1.0
  C  C204  1  0.48917000  0.30893000  0.73933000  1.0
  C  C205  1  0.49797000  0.60563000  0.95103000  1.0
  C  C206  1  0.59687000  0.60093000  0.99513000  1.0
  C  C207  1  0.66867000  0.61513000  0.02543000  1.0
  C  C208  1  0.54967000  0.52523000  0.96783000  1.0
  C  C209  1  0.63487000  0.47983000  0.99873000  1.0
  C  C210  1  0.41577000  0.46433000  0.90323000  1.0
  C  C211  1  0.22607000  0.15323000  0.78383000  1.0
  C  C212  1  0.04743000  0.66657000  0.04557000  1.0
  C  C213  1  0.96243000  0.41537000  0.16547000  1.0
  C  C214  1  0.99663000  0.49777000  0.26237000  1.0
  C  C215  1  0.02703000  0.54807000  0.10307000  1.0
  C  C216  1  0.93803000  0.41827000  0.22977000  1.0
  C  C217  1  0.99363000  0.59117000  0.07537000  1.0
  C  C218  1  0.10123000  0.82017000  0.17057000  1.0
  C  C219  1  0.18433000  0.82897000  0.14997000  1.0
  C  C220  1  0.15583000  0.64227000  0.07267000  1.0
  C  C221  1  0.16463000  0.93897000  0.28437000  1.0
  C  C222  1  0.26353000  0.93427000  0.32847000  1.0
  C  C223  1  0.33533000  0.94847000  0.35877000  1.0
  C  C224  1  0.21633000  0.85857000  0.30117000  1.0
  C  C225  1  0.30153000  0.81317000  0.33207000  1.0
  C  C226  1  0.08243000  0.79767000  0.23657000  1.0
  C  C227  1  0.89273000  0.48657000  0.11717000  1.0
  C  C228  1  0.00010000  0.71420000  0.37890000  1.0
  C  C229  1  0.25130000  0.88040000  0.49880000  1.0
  C  C230  1  0.16890000  0.83220000  0.59570000  1.0
  C  C231  1  0.11860000  0.81230000  0.43640000  1.0
  C  C232  1  0.24840000  0.85310000  0.56310000  1.0
  C  C233  1  0.07550000  0.73580000  0.40870000  1.0
  C  C234  1  0.84650000  0.61440000  0.50390000  1.0
  C  C235  1  0.83770000  0.68870000  0.48330000  1.0
  C  C236  1  0.02440000  0.84690000  0.40600000  1.0
  C  C237  1  0.72770000  0.55900000  0.61770000  1.0
  C  C238  1  0.73240000  0.66260000  0.66180000  1.0
  C  C239  1  0.71820000  0.72020000  0.69210000  1.0
  C  C240  1  0.80810000  0.69110000  0.63450000  1.0
  C  C241  1  0.85350000  0.82170000  0.66540000  1.0
  C  C242  1  0.86900000  0.61810000  0.56990000  1.0
  C  C243  1  0.18010000  0.73950000  0.45050000  1.0
  C  C244  1  0.66677000  0.04753000  0.71223000  1.0
  C  C245  1  0.91797000  0.21373000  0.83213000  1.0
  C  C246  1  0.83557000  0.16553000  0.92903000  1.0
  C  C247  1  0.78527000  0.14563000  0.76973000  1.0
  C  C248  1  0.91507000  0.18643000  0.89643000  1.0
  C  C249  1  0.74217000  0.06913000  0.74203000  1.0
  C  C250  1  0.51317000  0.94773000  0.83723000  1.0
  C  C251  1  0.50437000  0.02203000  0.81663000  1.0
  C  C252  1  0.69107000  0.18023000  0.73933000  1.0
  C  C253  1  0.39437000  0.89233000  0.95103000  1.0
  C  C254  1  0.39907000  0.99593000  0.99513000  1.0
  C  C255  1  0.38487000  0.05353000  0.02543000  1.0
  C  C256  1  0.47477000  0.02443000  0.96783000  1.0
  C  C257  1  0.52017000  0.15503000  0.99873000  1.0
  C  C258  1  0.53567000  0.95143000  0.90323000  1.0
  C  C259  1  0.84677000  0.07283000  0.78383000  1.0
  C  C260  1  0.33343000  0.38087000  0.04557000  1.0
  C  C261  1  0.58463000  0.54707000  0.16547000  1.0
  C  C262  1  0.50223000  0.49887000  0.26237000  1.0
  C  C263  1  0.45193000  0.47897000  0.10307000  1.0
  C  C264  1  0.58173000  0.51977000  0.22977000  1.0
  C  C265  1  0.40883000  0.40247000  0.07537000  1.0
  C  C266  1  0.17983000  0.28107000  0.17057000  1.0
  C  C267  1  0.17103000  0.35537000  0.14997000  1.0
  C  C268  1  0.35773000  0.51357000  0.07267000  1.0
  C  C269  1  0.06103000  0.22567000  0.28437000  1.0
  C  C270  1  0.06573000  0.32927000  0.32847000  1.0
  C  C271  1  0.05153000  0.38687000  0.35877000  1.0
  C  C272  1  0.14143000  0.35777000  0.30117000  1.0
  C  C273  1  0.18683000  0.48837000  0.33207000  1.0
  C  C274  1  0.20233000  0.28477000  0.23657000  1.0
  C  C275  1  0.51343000  0.40617000  0.11717000  1.0
  C  C276  1  0.28580000  0.28590000  0.37890000  1.0
  C  C277  1  0.11960000  0.37090000  0.49880000  1.0
  C  C278  1  0.16780000  0.33670000  0.59570000  1.0
  C  C279  1  0.18770000  0.30630000  0.43640000  1.0
  C  C280  1  0.14690000  0.39530000  0.56310000  1.0
  C  C281  1  0.26420000  0.33970000  0.40870000  1.0
  C  C282  1  0.38560000  0.23210000  0.50390000  1.0
  C  C283  1  0.31130000  0.14900000  0.48330000  1.0
  C  C284  1  0.15310000  0.17750000  0.40600000  1.0
  C  C285  1  0.44100000  0.16870000  0.61770000  1.0
  C  C286  1  0.33740000  0.06980000  0.66180000  1.0
  C  C287  1  0.27980000  0.99800000  0.69210000  1.0
  C  C288  1  0.30890000  0.11700000  0.63450000  1.0
  C  C289  1  0.17830000  0.03180000  0.66540000  1.0
  C  C290  1  0.38190000  0.25090000  0.56990000  1.0
  C  C291  1  0.26050000  0.44060000  0.45050000  1.0
  C  C292  1  0.95247000  0.61923000  0.71223000  1.0
  C  C293  1  0.78627000  0.70423000  0.83213000  1.0
  C  C294  1  0.83447000  0.67003000  0.92903000  1.0
  C  C295  1  0.85437000  0.63963000  0.76973000  1.0
  C  C296  1  0.81357000  0.72863000  0.89643000  1.0
  C  C297  1  0.93087000  0.67303000  0.74203000  1.0
  C  C298  1  0.05227000  0.56543000  0.83723000  1.0
  C  C299  1  0.97797000  0.48233000  0.81663000  1.0
  C  C300  1  0.81977000  0.51083000  0.73933000  1.0
  C  C301  1  0.10767000  0.50203000  0.95103000  1.0
  C  C302  1  0.00407000  0.40313000  0.99513000  1.0
  C  C303  1  0.94647000  0.33133000  0.02543000  1.0
  C  C304  1  0.97557000  0.45033000  0.96783000  1.0
  C  C305  1  0.84497000  0.36513000  0.99873000  1.0
  C  C306  1  0.04857000  0.58423000  0.90323000  1.0
  C  C307  1  0.92717000  0.77393000  0.78383000  1.0
  C  C308  1  0.61913000  0.95257000  0.04557000  1.0
  C  C309  1  0.45293000  0.03757000  0.16547000  1.0
  C  C310  1  0.50113000  0.00337000  0.26237000  1.0
  C  C311  1  0.52103000  0.97297000  0.10307000  1.0
  C  C312  1  0.48023000  0.06197000  0.22977000  1.0
  C  C313  1  0.59753000  0.00637000  0.07537000  1.0
  C  C314  1  0.71893000  0.89877000  0.17057000  1.0
  C  C315  1  0.64463000  0.81567000  0.14997000  1.0
  C  C316  1  0.48643000  0.84417000  0.07267000  1.0
  C  C317  1  0.77433000  0.83537000  0.28437000  1.0
  C  C318  1  0.67073000  0.73647000  0.32847000  1.0
  C  C319  1  0.61313000  0.66467000  0.35877000  1.0
  C  C320  1  0.64223000  0.78367000  0.30117000  1.0
  C  C321  1  0.51163000  0.69847000  0.33207000  1.0
  C  C322  1  0.71523000  0.91757000  0.23657000  1.0
  C  C323  1  0.59383000  0.10727000  0.11717000  1.0
  N  N324  1  0.62950000  0.81460000  0.46310000  1.0
  N  N325  1  0.57450000  0.88300000  0.41790000  1.0
  N  N326  1  0.68970000  0.04770000  0.35180000  1.0
  N  N327  1  0.77590000  0.90450000  0.43500000  1.0
  N  N328  1  0.89620000  0.31840000  0.64980000  1.0
  N  N329  1  0.05160000  0.35030000  0.72160000  1.0
  N  N330  1  0.89700000  0.12690000  0.63580000  1.0
  N  N331  1  0.02000000  0.21810000  0.69180000  1.0
  N  N332  1  0.81740000  0.19490000  0.60700000  1.0
  N  N333  1  0.79600000  0.02290000  0.37890000  1.0
  N  N334  1  0.29617000  0.14793000  0.79643000  1.0
  N  N335  1  0.24117000  0.21633000  0.75123000  1.0
  N  N336  1  0.35637000  0.38103000  0.68513000  1.0
  N  N337  1  0.44257000  0.23783000  0.76833000  1.0
  N  N338  1  0.56287000  0.65173000  0.98313000  1.0
  N  N339  1  0.71827000  0.68363000  0.05493000  1.0
  N  N340  1  0.56367000  0.46023000  0.96913000  1.0
  N  N341  1  0.68667000  0.55143000  0.02513000  1.0
  N  N342  1  0.48407000  0.52823000  0.94033000  1.0
  N  N343  1  0.46267000  0.35623000  0.71223000  1.0
  N  N344  1  0.96283000  0.48127000  0.12977000  1.0
  N  N345  1  0.90783000  0.54967000  0.08457000  1.0
  N  N346  1  0.02303000  0.71437000  0.01847000  1.0
  N  N347  1  0.10923000  0.57117000  0.10167000  1.0
  N  N348  1  0.22953000  0.98507000  0.31647000  1.0
  N  N349  1  0.38493000  0.01697000  0.38827000  1.0
  N  N350  1  0.23033000  0.79357000  0.30247000  1.0
  N  N351  1  0.35333000  0.88477000  0.35847000  1.0
  N  N352  1  0.15073000  0.86157000  0.27367000  1.0
  N  N353  1  0.12933000  0.68957000  0.04557000  1.0
  N  N354  1  0.18540000  0.81490000  0.46310000  1.0
  N  N355  1  0.11700000  0.69150000  0.41790000  1.0
  N  N356  1  0.95230000  0.64200000  0.35180000  1.0
  N  N357  1  0.09550000  0.87140000  0.43500000  1.0
  N  N358  1  0.68160000  0.57780000  0.64980000  1.0
  N  N359  1  0.64970000  0.70130000  0.72160000  1.0
  N  N360  1  0.87310000  0.77010000  0.63580000  1.0
  N  N361  1  0.78190000  0.80190000  0.69180000  1.0
  N  N362  1  0.80510000  0.62250000  0.60700000  1.0
  N  N363  1  0.97710000  0.77310000  0.37890000  1.0
  N  N364  1  0.85207000  0.14823000  0.79643000  1.0
  N  N365  1  0.78367000  0.02483000  0.75123000  1.0
  N  N366  1  0.61897000  0.97533000  0.68513000  1.0
  N  N367  1  0.76217000  0.20473000  0.76833000  1.0
  N  N368  1  0.34827000  0.91113000  0.98313000  1.0
  N  N369  1  0.31637000  0.03463000  0.05493000  1.0
  N  N370  1  0.53977000  0.10343000  0.96913000  1.0
  N  N371  1  0.44857000  0.13523000  0.02513000  1.0
  N  N372  1  0.47177000  0.95583000  0.94033000  1.0
  N  N373  1  0.64377000  0.10643000  0.71223000  1.0
  N  N374  1  0.51873000  0.48157000  0.12977000  1.0
  N  N375  1  0.45033000  0.35817000  0.08457000  1.0
  N  N376  1  0.28563000  0.30867000  0.01847000  1.0
  N  N377  1  0.42883000  0.53807000  0.10167000  1.0
  N  N378  1  0.01493000  0.24447000  0.31647000  1.0
  N  N379  1  0.98303000  0.36797000  0.38827000  1.0
  N  N380  1  0.20643000  0.43677000  0.30247000  1.0
  N  N381  1  0.11523000  0.46857000  0.35847000  1.0
  N  N382  1  0.13843000  0.28917000  0.27367000  1.0
  N  N383  1  0.31043000  0.43977000  0.04557000  1.0
  N  N384  1  0.18510000  0.37050000  0.46310000  1.0
  N  N385  1  0.30850000  0.42550000  0.41790000  1.0
  N  N386  1  0.35800000  0.31030000  0.35180000  1.0
  N  N387  1  0.12860000  0.22410000  0.43500000  1.0
  N  N388  1  0.42220000  0.10380000  0.64980000  1.0
  N  N389  1  0.29870000  0.94840000  0.72160000  1.0
  N  N390  1  0.22990000  0.10300000  0.63580000  1.0
  N  N391  1  0.19810000  0.98000000  0.69180000  1.0
  N  N392  1  0.37750000  0.18260000  0.60700000  1.0
  N  N393  1  0.22690000  0.20400000  0.37890000  1.0
  N  N394  1  0.85177000  0.70383000  0.79643000  1.0
  N  N395  1  0.97517000  0.75883000  0.75123000  1.0
  N  N396  1  0.02467000  0.64363000  0.68513000  1.0
  N  N397  1  0.79527000  0.55743000  0.76833000  1.0
  N  N398  1  0.08887000  0.43713000  0.98313000  1.0
  N  N399  1  0.96537000  0.28173000  0.05493000  1.0
  N  N400  1  0.89657000  0.43633000  0.96913000  1.0
  N  N401  1  0.86477000  0.31333000  0.02513000  1.0
  N  N402  1  0.04417000  0.51593000  0.94033000  1.0
  N  N403  1  0.89357000  0.53733000  0.71223000  1.0
  N  N404  1  0.51843000  0.03717000  0.12977000  1.0
  N  N405  1  0.64183000  0.09217000  0.08457000  1.0
  N  N406  1  0.69133000  0.97697000  0.01847000  1.0
  N  N407  1  0.46193000  0.89077000  0.10167000  1.0
  N  N408  1  0.75553000  0.77047000  0.31647000  1.0
  N  N409  1  0.63203000  0.61507000  0.38827000  1.0
  N  N410  1  0.56323000  0.76967000  0.30247000  1.0
  N  N411  1  0.53143000  0.64667000  0.35847000  1.0
  N  N412  1  0.71083000  0.84927000  0.27367000  1.0
  N  N413  1  0.56023000  0.87067000  0.04557000  1.0
  O  O414  1  0.64000000  0.84020000  0.64580000  1.0
  O  O415  1  0.87680000  0.11880000  0.50640000  1.0
  O  O416  1  0.89170000  0.21510000  0.44450000  1.0
  O  O417  1  0.73110000  0.87880000  0.57050000  1.0
  O  O418  1  0.30667000  0.17353000  0.97913000  1.0
  O  O419  1  0.54347000  0.45213000  0.83973000  1.0
  O  O420  1  0.55837000  0.54843000  0.77783000  1.0
  O  O421  1  0.39777000  0.21213000  0.90383000  1.0
  O  O422  1  0.97333000  0.50687000  0.31247000  1.0
  O  O423  1  0.21013000  0.78547000  0.17307000  1.0
  O  O424  1  0.22503000  0.88177000  0.11117000  1.0
  O  O425  1  0.06443000  0.54547000  0.23717000  1.0
  O  O426  1  0.15980000  0.79980000  0.64580000  1.0
  O  O427  1  0.88120000  0.75800000  0.50640000  1.0
  O  O428  1  0.78490000  0.67660000  0.44450000  1.0
  O  O429  1  0.12120000  0.85230000  0.57050000  1.0
  O  O430  1  0.82647000  0.13313000  0.97913000  1.0
  O  O431  1  0.54787000  0.09133000  0.83973000  1.0
  O  O432  1  0.45157000  0.00993000  0.77783000  1.0
  O  O433  1  0.78787000  0.18563000  0.90383000  1.0
  O  O434  1  0.49313000  0.46647000  0.31247000  1.0
  O  O435  1  0.21453000  0.42467000  0.17307000  1.0
  O  O436  1  0.11823000  0.34327000  0.11117000  1.0
  O  O437  1  0.45453000  0.51897000  0.23717000  1.0
  O  O438  1  0.20020000  0.36000000  0.64580000  1.0
  O  O439  1  0.24200000  0.12320000  0.50640000  1.0
  O  O440  1  0.32340000  0.10830000  0.44450000  1.0
  O  O441  1  0.14770000  0.26890000  0.57050000  1.0
  O  O442  1  0.86687000  0.69333000  0.97913000  1.0
  O  O443  1  0.90867000  0.45653000  0.83973000  1.0
  O  O444  1  0.99007000  0.44163000  0.77783000  1.0
  O  O445  1  0.81437000  0.60223000  0.90383000  1.0
  O  O446  1  0.53353000  0.02667000  0.31247000  1.0
  O  O447  1  0.57533000  0.78987000  0.17307000  1.0
  O  O448  1  0.65673000  0.77497000  0.11117000  1.0
  O  O449  1  0.48103000  0.93557000  0.23717000  1.0
