# generated using pymatgen
data_TmH4(CO2)4
_symmetry_space_group_name_H-M   'P 1'
_cell_length_a   6.63750000
_cell_length_b   18.29530000
_cell_length_c   8.40580000
_cell_angle_alpha   90.00000000
_cell_angle_beta   90.00000000
_cell_angle_gamma   90.00000000
_symmetry_Int_Tables_number   1
_chemical_formula_structural   TmH4(CO2)4
_chemical_formula_sum   'Tm4 H16 C16 O32'
_cell_volume   1020.75877481
_cell_formula_units_Z   4
loop_
 _symmetry_equiv_pos_site_id
 _symmetry_equiv_pos_as_xyz
  1  'x, y, z'
loop_
 _atom_site_type_symbol
 _atom_site_label
 _atom_site_symmetry_multiplicity
 _atom_site_fract_x
 _atom_site_fract_y
 _atom_site_fract_z
 _atom_site_occupancy
  Tm  Tm0  1  0.00000000  0.14281000  0.25000000  1.0
  Tm  Tm1  1  0.50000000  0.64281000  0.25000000  1.0
  Tm  Tm2  1  0.00000000  0.85719000  0.75000000  1.0
  Tm  Tm3  1  0.50000000  0.35719000  0.75000000  1.0
  H  H4  1  0.28290000  0.21770000  0.95350000  1.0
  H  H5  1  0.78290000  0.71770000  0.95350000  1.0
  H  H6  1  0.71710000  0.78230000  0.45350000  1.0
  H  H7  1  0.21710000  0.28230000  0.45350000  1.0
  H  H8  1  0.71710000  0.21770000  0.54650000  1.0
  H  H9  1  0.21710000  0.71770000  0.54650000  1.0
  H  H10  1  0.28290000  0.78230000  0.04650000  1.0
  H  H11  1  0.78290000  0.28230000  0.04650000  1.0
  H  H12  1  0.50000000  0.17690000  0.25000000  1.0
  H  H13  1  0.00000000  0.67690000  0.25000000  1.0
  H  H14  1  0.50000000  0.82310000  0.75000000  1.0
  H  H15  1  0.00000000  0.32310000  0.75000000  1.0
  H  H16  1  0.78420000  0.00000000  0.50000000  1.0
  H  H17  1  0.28420000  0.50000000  0.50000000  1.0
  H  H18  1  0.21580000  0.00000000  0.00000000  1.0
  H  H19  1  0.71580000  0.50000000  0.00000000  1.0
  C  C20  1  0.26450000  0.25630000  0.02380000  1.0
  C  C21  1  0.76450000  0.75630000  0.02380000  1.0
  C  C22  1  0.73550000  0.74370000  0.52380000  1.0
  C  C23  1  0.23550000  0.24370000  0.52380000  1.0
  C  C24  1  0.73550000  0.25630000  0.47620000  1.0
  C  C25  1  0.23550000  0.75630000  0.47620000  1.0
  C  C26  1  0.26450000  0.74370000  0.97620000  1.0
  C  C27  1  0.76450000  0.24370000  0.97620000  1.0
  C  C28  1  0.50000000  0.12600000  0.25000000  1.0
  C  C29  1  0.00000000  0.62600000  0.25000000  1.0
  C  C30  1  0.50000000  0.87400000  0.75000000  1.0
  C  C31  1  0.00000000  0.37400000  0.75000000  1.0
  C  C32  1  0.92430000  0.00000000  0.50000000  1.0
  C  C33  1  0.42430000  0.50000000  0.50000000  1.0
  C  C34  1  0.07570000  0.00000000  0.00000000  1.0
  C  C35  1  0.57570000  0.50000000  0.00000000  1.0
  O  O36  1  0.01470000  0.05000000  0.42920000  1.0
  O  O37  1  0.33520000  0.09485000  0.22750000  1.0
  O  O38  1  0.17950000  0.24207000  0.15310000  1.0
  O  O39  1  0.32610000  0.31653000  0.98090000  1.0
  O  O40  1  0.51470000  0.55000000  0.42920000  1.0
  O  O41  1  0.83520000  0.59485000  0.22750000  1.0
  O  O42  1  0.67950000  0.74207000  0.15310000  1.0
  O  O43  1  0.82610000  0.81653000  0.98090000  1.0
  O  O44  1  0.98530000  0.95000000  0.92920000  1.0
  O  O45  1  0.66480000  0.90515000  0.72750000  1.0
  O  O46  1  0.82050000  0.75793000  0.65310000  1.0
  O  O47  1  0.67390000  0.68347000  0.48090000  1.0
  O  O48  1  0.48530000  0.45000000  0.92920000  1.0
  O  O49  1  0.16480000  0.40515000  0.72750000  1.0
  O  O50  1  0.32050000  0.25793000  0.65310000  1.0
  O  O51  1  0.17390000  0.18347000  0.48090000  1.0
  O  O52  1  0.98530000  0.05000000  0.07080000  1.0
  O  O53  1  0.66480000  0.09485000  0.27250000  1.0
  O  O54  1  0.82050000  0.24207000  0.34690000  1.0
  O  O55  1  0.67390000  0.31653000  0.51910000  1.0
  O  O56  1  0.48530000  0.55000000  0.07080000  1.0
  O  O57  1  0.16480000  0.59485000  0.27250000  1.0
  O  O58  1  0.32050000  0.74207000  0.34690000  1.0
  O  O59  1  0.17390000  0.81653000  0.51910000  1.0
  O  O60  1  0.01470000  0.95000000  0.57080000  1.0
  O  O61  1  0.33520000  0.90515000  0.77250000  1.0
  O  O62  1  0.17950000  0.75793000  0.84690000  1.0
  O  O63  1  0.32610000  0.68347000  0.01910000  1.0
  O  O64  1  0.51470000  0.45000000  0.57080000  1.0
  O  O65  1  0.83520000  0.40515000  0.77250000  1.0
  O  O66  1  0.67950000  0.25793000  0.84690000  1.0
  O  O67  1  0.82610000  0.18347000  0.01910000  1.0
