# generated using pymatgen
data_Zn3H54C66O17
_symmetry_space_group_name_H-M   'P 1'
_cell_length_a   8.15760000
_cell_length_b   23.52970000
_cell_length_c   23.52970000
_cell_angle_alpha   88.27810000
_cell_angle_beta   80.01750000
_cell_angle_gamma   80.01770000
_symmetry_Int_Tables_number   1
_chemical_formula_structural   Zn3H54C66O17
_chemical_formula_sum   'Zn6 H108 C132 O34'
_cell_volume   4380.71609194
_cell_formula_units_Z   2
loop_
 _symmetry_equiv_pos_site_id
 _symmetry_equiv_pos_as_xyz
  1  'x, y, z'
loop_
 _atom_site_type_symbol
 _atom_site_label
 _atom_site_symmetry_multiplicity
 _atom_site_fract_x
 _atom_site_fract_y
 _atom_site_fract_z
 _atom_site_occupancy
  Zn  Zn0  1  0.25504000  0.93853000  0.94953000  1.0
  Zn  Zn1  1  0.79543000  0.94953000  0.06147000  1.0
  Zn  Zn2  1  0.14310000  0.06147000  0.05047000  1.0
  Zn  Zn3  1  0.25000000  0.50000000  0.50000000  1.0
  Zn  Zn4  1  0.80643000  0.05047000  0.93853000  1.0
  Zn  Zn5  1  0.50000000  0.00000000  0.00000000  1.0
  H  H6  1  0.90740000  0.00510000  0.71690000  1.0
  H  H7  1  0.17960000  0.11610000  0.38070000  1.0
  H  H8  1  0.31990000  0.03100000  0.19840000  1.0
  H  H9  1  0.23980000  0.97920000  0.18140000  1.0
  H  H10  1  0.07290000  0.18030000  0.61410000  1.0
  H  H11  1  0.42200000  0.98360000  0.72140000  1.0
  H  H12  1  0.64910000  0.80160000  0.03100000  1.0
  H  H13  1  0.70560000  0.68310000  0.49230000  1.0
  H  H14  1  0.62940000  0.99490000  0.28310000  1.0
  H  H15  1  0.61980000  0.48950000  0.25170000  1.0
  H  H16  1  0.05430000  0.02210000  0.79330000  1.0
  H  H17  1  0.97080000  0.99440000  0.36780000  1.0
  H  H18  1  0.31320000  0.37020000  0.84380000  1.0
  H  H19  1  0.80210000  0.49230000  0.31690000  1.0
  H  H20  1  0.30060000  0.95170000  0.47950000  1.0
  H  H21  1  0.00870000  0.48760000  0.13020000  1.0
  H  H22  1  0.33333333  0.86340000  0.38960000  1.0
  H  H23  1  0.26360000  0.80980000  0.02120000  1.0
  H  H24  1  0.36100000  0.51050000  0.74830000  1.0
  H  H25  1  0.19670000  0.49440000  0.18440000  1.0
  H  H26  1  0.62830000  0.69850000  0.88190000  1.0
  H  H27  1  0.84300000  0.84380000  0.62980000  1.0
  H  H28  1  0.48980000  0.88190000  0.30150000  1.0
  H  H29  1  0.50370000  0.86980000  0.48760000  1.0
  H  H30  1  0.68240000  0.38000000  0.49500000  1.0
  H  H31  1  0.41520000  0.63190000  0.55990000  1.0
  H  H32  1  0.67320000  0.11810000  0.69850000  1.0
  H  H33  1  0.96310000  0.86730000  0.35490000  1.0
  H  H34  1  0.12700000  0.01640000  0.27860000  1.0
  H  H35  1  0.85260000  0.12910000  0.31010000  1.0
  H  H36  1  0.46330000  0.01020000  0.37300000  1.0
  H  H37  1  0.12850000  0.25170000  0.51050000  1.0
  H  H38  1  0.86110000  0.13020000  0.51240000  1.0
  H  H39  1  0.27250000  0.53670000  0.02130000  1.0
  H  H40  1  0.93760000  0.50500000  0.38000000  1.0
  H  H41  1  0.37570000  0.71690000  0.99490000  1.0
  H  H42  1  0.85300000  0.37830000  0.11810000  1.0
  H  H43  1  0.82260000  0.49500000  0.62000000  1.0
  H  H44  1  0.61890000  0.18440000  0.50560000  1.0
  H  H45  1  0.84230000  0.52310000  0.00390000  1.0
  H  H46  1  0.62650000  0.51240000  0.86980000  1.0
  H  H47  1  0.55740000  0.62000000  0.50500000  1.0
  H  H48  1  0.23250000  0.85870000  0.59910000  1.0
  H  H49  1  0.13640000  0.17930000  0.40510000  1.0
  H  H50  1  0.72080000  0.82070000  0.59490000  1.0
  H  H51  1  0.70430000  0.61930000  0.11610000  1.0
  H  H52  1  0.31300000  0.61410000  0.81970000  1.0
  H  H53  1  0.09460000  0.19020000  0.97880000  1.0
  H  H54  1  0.18530000  0.13270000  0.64510000  1.0
  H  H55  1  0.84650000  0.98980000  0.62700000  1.0
  H  H56  1  0.68430000  0.59490000  0.17930000  1.0
  H  H57  1  0.69030000  0.14130000  0.40090000  1.0
  H  H58  1  0.92360000  0.20670000  0.02210000  1.0
  H  H59  1  0.70620000  0.02130000  0.46330000  1.0
  H  H60  1  0.15240000  0.79330000  0.97790000  1.0
  H  H61  1  0.95290000  0.44010000  0.63190000  1.0
  H  H62  1  0.27710000  0.38960000  0.13660000  1.0
  H  H63  1  0.88100000  0.31690000  0.50770000  1.0
  H  H64  1  0.45850000  0.40510000  0.82070000  1.0
  H  H65  1  0.21990000  0.47950000  0.04830000  1.0
  H  H66  1  0.16370000  0.37300000  0.98980000  1.0
  H  H67  1  0.92660000  0.97880000  0.80980000  1.0
  H  H68  1  0.57880000  0.18140000  0.02080000  1.0
  H  H69  1  0.08750000  0.28310000  0.00510000  1.0
  H  H70  1  0.83730000  0.31010000  0.87090000  1.0
  H  H71  1  0.67640000  0.88390000  0.61930000  1.0
  H  H72  1  0.54930000  0.96900000  0.80160000  1.0
  H  H73  1  0.68200000  0.35490000  0.13270000  1.0
  H  H74  1  0.20870000  0.30150000  0.11810000  1.0
  H  H75  1  0.86970000  0.97790000  0.20670000  1.0
  H  H76  1  0.48170000  0.19840000  0.96900000  1.0
  H  H77  1  0.87550000  0.50560000  0.81560000  1.0
  H  H78  1  0.90880000  0.40090000  0.85870000  1.0
  H  H79  1  0.86730000  0.81970000  0.38590000  1.0
  H  H80  1  0.36930000  0.47690000  0.99610000  1.0
  H  H81  1  0.66140000  0.36780000  0.00560000  1.0
  H  H82  1  0.74680000  0.38590000  0.18030000  1.0
  H  H83  1  0.61130000  0.50770000  0.68310000  1.0
  H  H84  1  0.02490000  0.55990000  0.36810000  1.0
  H  H85  1  0.31660000  0.15620000  0.37020000  1.0
  H  H86  1  0.29180000  0.87090000  0.68990000  1.0
  H  H87  1  0.15380000  0.00390000  0.47690000  1.0
  H  H88  1  0.85660000  0.72140000  0.01640000  1.0
  H  H89  1  0.78100000  0.81860000  0.97920000  1.0
  H  H90  1  0.34940000  0.62170000  0.88190000  1.0
  H  H91  1  0.33300000  0.00560000  0.63220000  1.0
  H  H92  1  0.76870000  0.88190000  0.37830000  1.0
  H  H93  1  0.16840000  0.59910000  0.14130000  1.0
  H  H94  1  0.01830000  0.68990000  0.12910000  1.0
  H  H95  1  0.19080000  0.97870000  0.53670000  1.0
  H  H96  1  0.58630000  0.13660000  0.61040000  1.0
  H  H97  1  0.52720000  0.62980000  0.15620000  1.0
  H  H98  1  0.71520000  0.02120000  0.19020000  1.0
  H  H99  1  0.63460000  0.99610000  0.52310000  1.0
  H  H100  1  0.89070000  0.74830000  0.48950000  1.0
  H  H101  1  0.59440000  0.27860000  0.98360000  1.0
  H  H102  1  0.80330000  0.61040000  0.86340000  1.0
  H  H103  1  0.83050000  0.46330000  0.97870000  1.0
  H  H104  1  0.74770000  0.52050000  0.95170000  1.0
  H  H105  1  0.52650000  0.62700000  0.01020000  1.0
  H  H106  1  0.03480000  0.63220000  0.99440000  1.0
  H  H107  1  0.40040000  0.02080000  0.81860000  1.0
  H  H108  1  0.43970000  0.38070000  0.88390000  1.0
  H  H109  1  0.60700000  0.36810000  0.44010000  1.0
  H  H110  1  0.16960000  0.64510000  0.86730000  1.0
  H  H111  1  0.02890000  0.11810000  0.62170000  1.0
  H  H112  1  0.73180000  0.04830000  0.52050000  1.0
  H  H113  1  0.30890000  0.81560000  0.49440000  1.0
  C  C114  1  0.49450000  0.07140000  0.50400000  1.0
  C  C115  1  0.18010000  0.14340000  0.50540000  1.0
  C  C116  1  0.97930000  0.90940000  0.54740000  1.0
  C  C117  1  0.55230000  0.10610000  0.63290000  1.0
  C  C118  1  0.04400000  0.98320000  0.80620000  1.0
  C  C119  1  0.05000000  0.39560000  0.92160000  1.0
  C  C120  1  0.83340000  0.01680000  0.19380000  1.0
  C  C121  1  0.55120000  0.04990000  0.71950000  1.0
  C  C122  1  0.48050000  0.73940000  0.48960000  1.0
  C  C123  1  0.95250000  0.64570000  0.97210000  1.0
  C  C124  1  0.21210000  0.55710000  0.87750000  1.0
  C  C125  1  0.43410000  0.49600000  0.07140000  1.0
  C  C126  1  0.16790000  0.98510000  0.30030000  1.0
  C  C127  1  0.37950000  0.39700000  0.85400000  1.0
  C  C128  1  0.93100000  0.48200000  0.63200000  1.0
  C  C129  1  0.48920000  0.50500000  0.82060000  1.0
  C  C130  1  0.59290000  0.54850000  0.12490000  1.0
  C  C131  1  0.69020000  0.82060000  0.49500000  1.0
  C  C132  1  0.16400000  0.49540000  0.40860000  1.0
  C  C133  1  0.05360000  0.30620000  0.97500000  1.0
  C  C134  1  0.13800000  0.92690000  0.38710000  1.0
  C  C135  1  0.72930000  0.71950000  0.95010000  1.0
  C  C136  1  0.42740000  0.40860000  0.50460000  1.0
  C  C137  1  0.38540000  0.90450000  0.31430000  1.0
  C  C138  1  0.47330000  0.54740000  0.09060000  1.0
  C  C139  1  0.71010000  0.68570000  0.90450000  1.0
  C  C140  1  0.08550000  0.49230000  0.20070000  1.0
  C  C141  1  0.67550000  0.11270000  0.37670000  1.0
  C  C142  1  0.38800000  0.08780000  0.55680000  1.0
  C  C143  1  0.05520000  0.55680000  0.91220000  1.0
  C  C144  1  0.90310000  0.32270000  0.89490000  1.0
  C  C145  1  0.36720000  0.60440000  0.07840000  1.0
  C  C146  1  0.31320000  0.49750000  0.03070000  1.0
  C  C147  1  0.64020000  0.02500000  0.30620000  1.0
  C  C148  1  0.31450000  0.50540000  0.85660000  1.0
  C  C149  1  0.63050000  0.60300000  0.14600000  1.0
  C  C150  1  0.21180000  0.62330000  0.11270000  1.0
  C  C151  1  0.81480000  0.63290000  0.89390000  1.0
  C  C152  1  0.45330000  0.01490000  0.69970000  1.0
  C  C153  1  0.06800000  0.50460000  0.59140000  1.0
  C  C154  1  0.77420000  0.10510000  0.32270000  1.0
  C  C155  1  0.87400000  0.86000000  0.38520000  1.0
  C  C156  1  0.12070000  0.67730000  0.10510000  1.0
  C  C157  1  0.53180000  0.30030000  0.01490000  1.0
  C  C158  1  0.84140000  0.50250000  0.96930000  1.0
  C  C159  1  0.77530000  0.75990000  0.49150000  1.0
  C  C160  1  0.84550000  0.49130000  0.27770000  1.0
  C  C161  1  0.26630000  0.45150000  0.87510000  1.0
  C  C162  1  0.16490000  0.88730000  0.62330000  1.0
  C  C163  1  0.30030000  0.31430000  0.09550000  1.0
  C  C164  1  0.93550000  0.96570000  0.63990000  1.0
  C  C165  1  0.71380000  0.20070000  0.50770000  1.0
  C  C166  1  0.02840000  0.92160000  0.60440000  1.0
  C  C167  1  0.09880000  0.36010000  0.96570000  1.0
  C  C168  1  0.64670000  0.44290000  0.12250000  1.0
  C  C169  1  0.62650000  0.50840000  0.83060000  1.0
  C  C170  1  0.95760000  0.28680000  0.93900000  1.0
  C  C171  1  0.57030000  0.35430000  0.02790000  1.0
  C  C172  1  0.34060000  0.59140000  0.49540000  1.0
  C  C173  1  0.77850000  0.50770000  0.79930000  1.0
  C  C174  1  0.54290000  0.83060000  0.49160000  1.0
  C  C175  1  0.66320000  0.72230000  0.49130000  1.0
  C  C176  1  0.04500000  0.51800000  0.36800000  1.0
  C  C177  1  0.18340000  0.71320000  0.06100000  1.0
  C  C178  1  0.46480000  0.50850000  0.75990000  1.0
  C  C179  1  0.73320000  0.49150000  0.24010000  1.0
  C  C180  1  0.54110000  0.03430000  0.36010000  1.0
  C  C181  1  0.55440000  0.07840000  0.39560000  1.0
  C  C182  1  0.97280000  0.19380000  0.98320000  1.0
  C  C183  1  0.10340000  0.93900000  0.71320000  1.0
  C  C184  1  0.26600000  0.61480000  0.86000000  1.0
  C  C185  1  0.28220000  0.12490000  0.45150000  1.0
  C  C186  1  0.06990000  0.92860000  0.49600000  1.0
  C  C187  1  0.46930000  0.18570000  0.00890000  1.0
  C  C188  1  0.58700000  0.36800000  0.48200000  1.0
  C  C189  1  0.93750000  0.02810000  0.13710000  1.0
  C  C190  1  0.33480000  0.69380000  0.02500000  1.0
  C  C191  1  0.94780000  0.37670000  0.88730000  1.0
  C  C192  1  0.78010000  0.51040000  0.73940000  1.0
  C  C193  1  0.93510000  0.61290000  0.92690000  1.0
  C  C194  1  0.76650000  0.85400000  0.60300000  1.0
  C  C195  1  0.84700000  0.69970000  0.98510000  1.0
  C  C196  1  0.52420000  0.44320000  0.08780000  1.0
  C  C197  1  0.00580000  0.17940000  0.50500000  1.0
  C  C198  1  0.97140000  0.97500000  0.69380000  1.0
  C  C199  1  0.81480000  0.49500000  0.17940000  1.0
  C  C200  1  0.42220000  0.79930000  0.49230000  1.0
  C  C201  1  0.40800000  0.12970000  0.01410000  1.0
  C  C202  1  0.10270000  0.97190000  0.86290000  1.0
  C  C203  1  0.96550000  0.49160000  0.16940000  1.0
  C  C204  1  0.66390000  0.81430000  0.99110000  1.0
  C  C205  1  0.45200000  0.07310000  0.61290000  1.0
  C  C206  1  0.86510000  0.16940000  0.50840000  1.0
  C  C207  1  0.92540000  0.13710000  0.97190000  1.0
  C  C208  1  0.43700000  0.63200000  0.51800000  1.0
  C  C209  1  0.74080000  0.38520000  0.14000000  1.0
  C  C210  1  0.87680000  0.27770000  0.50870000  1.0
  C  C211  1  0.61450000  0.50870000  0.72230000  1.0
  C  C212  1  0.00150000  0.50400000  0.92860000  1.0
  C  C213  1  0.03440000  0.86290000  0.02810000  1.0
  C  C214  1  0.07540000  0.97210000  0.35430000  1.0
  C  C215  1  0.39890000  0.28050000  0.04990000  1.0
  C  C216  1  0.70950000  0.26060000  0.51040000  1.0
  C  C217  1  0.57790000  0.01410000  0.87030000  1.0
  C  C218  1  0.02990000  0.48960000  0.26060000  1.0
  C  C219  1  0.40180000  0.02790000  0.64570000  1.0
  C  C220  1  0.23080000  0.12250000  0.55710000  1.0
  C  C221  1  0.75560000  0.06100000  0.28680000  1.0
  C  C222  1  0.65610000  0.03070000  0.50250000  1.0
  C  C223  1  0.52180000  0.00890000  0.81430000  1.0
  C  C224  1  0.02670000  0.24010000  0.50850000  1.0
  C  C225  1  0.29130000  0.89390000  0.36710000  1.0
  C  C226  1  0.91040000  0.87750000  0.44290000  1.0
  C  C227  1  0.42460000  0.63990000  0.03430000  1.0
  C  C228  1  0.11130000  0.45260000  0.90940000  1.0
  C  C229  1  0.22350000  0.14600000  0.39700000  1.0
  C  C230  1  0.43610000  0.09060000  0.45260000  1.0
  C  C231  1  0.32060000  0.95010000  0.28050000  1.0
  C  C232  1  0.14980000  0.80620000  0.01680000  1.0
  C  C233  1  0.03260000  0.91220000  0.44320000  1.0
  C  C234  1  0.85860000  0.87510000  0.54850000  1.0
  C  C235  1  0.55180000  0.87030000  0.98590000  1.0
  C  C236  1  0.11920000  0.14000000  0.61480000  1.0
  C  C237  1  0.67650000  0.49460000  0.14340000  1.0
  C  C238  1  0.34160000  0.36710000  0.10610000  1.0
  C  C239  1  0.34500000  0.99110000  0.18570000  1.0
  C  C240  1  0.20200000  0.89490000  0.67730000  1.0
  C  C241  1  0.46230000  0.98590000  0.12970000  1.0
  C  C242  1  0.18930000  0.96930000  0.49750000  1.0
  C  C243  1  0.82890000  0.85660000  0.49460000  1.0
  C  C244  1  0.47490000  0.38710000  0.07310000  1.0
  C  C245  1  0.60420000  0.09550000  0.68570000  1.0
  O  O246  1  0.42032000  0.95555000  0.22801000  1.0
  O  O247  1  0.03469000  0.00469000  0.90393000  1.0
  O  O248  1  0.22699000  0.93420000  0.86822000  1.0
  O  O249  1  0.68961000  0.04356000  0.87242000  1.0
  O  O250  1  0.11340000  0.50230000  0.55690000  1.0
  O  O251  1  0.08534000  0.76553000  0.05819000  1.0
  O  O252  1  0.62413000  0.77199000  0.95555000  1.0
  O  O253  1  0.14913000  0.94181000  0.76553000  1.0
  O  O254  1  0.90479000  0.86822000  0.06580000  1.0
  O  O255  1  0.92900000  0.50600000  0.69600000  1.0
  O  O256  1  0.50710000  0.98743000  0.91157000  1.0
  O  O257  1  0.25400000  0.00000000  0.00000000  1.0
  O  O258  1  0.13100000  0.49400000  0.30400000  1.0
  O  O259  1  0.26683000  0.12758000  0.04356000  1.0
  O  O260  1  0.74600000  0.00000000  0.00000000  1.0
  O  O261  1  0.02941000  0.06580000  0.13178000  1.0
  O  O262  1  0.37500000  0.69600000  0.49400000  1.0
  O  O263  1  0.40610000  0.01257000  0.08843000  1.0
  O  O264  1  0.06138000  0.90393000  0.99531000  1.0
  O  O265  1  0.60559000  0.95644000  0.12758000  1.0
  O  O266  1  0.17260000  0.49770000  0.44310000  1.0
  O  O267  1  0.58133000  0.91157000  0.01257000  1.0
  O  O268  1  0.90906000  0.23447000  0.94181000  1.0
  O  O269  1  0.32970000  0.55690000  0.49770000  1.0
  O  O270  1  0.56500000  0.30400000  0.50600000  1.0
  O  O271  1  0.38430000  0.44310000  0.50230000  1.0
  O  O272  1  0.94331000  0.99531000  0.09607000  1.0
  O  O273  1  0.96062000  0.09607000  0.00469000  1.0
  O  O274  1  0.43797000  0.87242000  0.95644000  1.0
  O  O275  1  0.83881000  0.13178000  0.93420000  1.0
  O  O276  1  0.60388000  0.04445000  0.77199000  1.0
  O  O277  1  0.85647000  0.05819000  0.23447000  1.0
  O  O278  1  0.50547000  0.08843000  0.98743000  1.0
  O  O279  1  0.35167000  0.22801000  0.04445000  1.0
