# generated using pymatgen
data_Ag2H2C2N3
_symmetry_space_group_name_H-M   'P 1'
_cell_length_a   19.33290000
_cell_length_b   19.33290000
_cell_length_c   19.33290000
_cell_angle_alpha   90.00000000
_cell_angle_beta   90.00000000
_cell_angle_gamma   90.00000000
_symmetry_Int_Tables_number   1
_chemical_formula_structural   Ag2H2C2N3
_chemical_formula_sum   'Ag72 H72 C72 N108'
_cell_volume   7225.88447015
_cell_formula_units_Z   36
loop_
 _symmetry_equiv_pos_site_id
 _symmetry_equiv_pos_as_xyz
  1  'x, y, z'
loop_
 _atom_site_type_symbol
 _atom_site_label
 _atom_site_symmetry_multiplicity
 _atom_site_fract_x
 _atom_site_fract_y
 _atom_site_fract_z
 _atom_site_occupancy
  Ag  Ag0  1  0.49472000  0.00528000  0.13646000  1.0
  Ag  Ag1  1  0.00528000  0.49472000  0.13646000  1.0
  Ag  Ag2  1  0.00528000  0.00528000  0.36354000  1.0
  Ag  Ag3  1  0.49472000  0.49472000  0.36354000  1.0
  Ag  Ag4  1  0.13646000  0.49472000  0.00528000  1.0
  Ag  Ag5  1  0.13646000  0.00528000  0.49472000  1.0
  Ag  Ag6  1  0.36354000  0.00528000  0.00528000  1.0
  Ag  Ag7  1  0.36354000  0.49472000  0.49472000  1.0
  Ag  Ag8  1  0.00528000  0.13646000  0.49472000  1.0
  Ag  Ag9  1  0.49472000  0.13646000  0.00528000  1.0
  Ag  Ag10  1  0.00528000  0.36354000  0.00528000  1.0
  Ag  Ag11  1  0.49472000  0.36354000  0.49472000  1.0
  Ag  Ag12  1  0.76922000  0.17434000  0.17434000  1.0
  Ag  Ag13  1  0.73078000  0.32566000  0.17434000  1.0
  Ag  Ag14  1  0.73078000  0.17434000  0.32566000  1.0
  Ag  Ag15  1  0.76922000  0.32566000  0.32566000  1.0
  Ag  Ag16  1  0.17434000  0.76922000  0.17434000  1.0
  Ag  Ag17  1  0.17434000  0.73078000  0.32566000  1.0
  Ag  Ag18  1  0.32566000  0.73078000  0.17434000  1.0
  Ag  Ag19  1  0.32566000  0.76922000  0.32566000  1.0
  Ag  Ag20  1  0.17434000  0.17434000  0.76922000  1.0
  Ag  Ag21  1  0.32566000  0.17434000  0.73078000  1.0
  Ag  Ag22  1  0.17434000  0.32566000  0.73078000  1.0
  Ag  Ag23  1  0.32566000  0.32566000  0.76922000  1.0
  Ag  Ag24  1  0.06260000  0.22320000  0.27680000  1.0
  Ag  Ag25  1  0.43740000  0.27680000  0.27680000  1.0
  Ag  Ag26  1  0.43740000  0.22320000  0.22320000  1.0
  Ag  Ag27  1  0.06260000  0.27680000  0.22320000  1.0
  Ag  Ag28  1  0.27680000  0.06260000  0.22320000  1.0
  Ag  Ag29  1  0.27680000  0.43740000  0.27680000  1.0
  Ag  Ag30  1  0.22320000  0.43740000  0.22320000  1.0
  Ag  Ag31  1  0.22320000  0.06260000  0.27680000  1.0
  Ag  Ag32  1  0.22320000  0.27680000  0.06260000  1.0
  Ag  Ag33  1  0.27680000  0.27680000  0.43740000  1.0
  Ag  Ag34  1  0.22320000  0.22320000  0.43740000  1.0
  Ag  Ag35  1  0.27680000  0.22320000  0.06260000  1.0
  Ag  Ag36  1  0.50528000  0.99472000  0.86354000  1.0
  Ag  Ag37  1  0.99472000  0.50528000  0.86354000  1.0
  Ag  Ag38  1  0.50528000  0.50528000  0.63646000  1.0
  Ag  Ag39  1  0.99472000  0.99472000  0.63646000  1.0
  Ag  Ag40  1  0.99472000  0.63646000  0.99472000  1.0
  Ag  Ag41  1  0.50528000  0.63646000  0.50528000  1.0
  Ag  Ag42  1  0.50528000  0.86354000  0.99472000  1.0
  Ag  Ag43  1  0.99472000  0.86354000  0.50528000  1.0
  Ag  Ag44  1  0.63646000  0.50528000  0.50528000  1.0
  Ag  Ag45  1  0.63646000  0.99472000  0.99472000  1.0
  Ag  Ag46  1  0.86354000  0.50528000  0.99472000  1.0
  Ag  Ag47  1  0.86354000  0.99472000  0.50528000  1.0
  Ag  Ag48  1  0.67434000  0.26922000  0.82566000  1.0
  Ag  Ag49  1  0.82566000  0.23078000  0.82566000  1.0
  Ag  Ag50  1  0.67434000  0.23078000  0.67434000  1.0
  Ag  Ag51  1  0.82566000  0.26922000  0.67434000  1.0
  Ag  Ag52  1  0.26922000  0.67434000  0.82566000  1.0
  Ag  Ag53  1  0.23078000  0.67434000  0.67434000  1.0
  Ag  Ag54  1  0.23078000  0.82566000  0.82566000  1.0
  Ag  Ag55  1  0.26922000  0.82566000  0.67434000  1.0
  Ag  Ag56  1  0.67434000  0.67434000  0.23078000  1.0
  Ag  Ag57  1  0.67434000  0.82566000  0.26922000  1.0
  Ag  Ag58  1  0.82566000  0.67434000  0.26922000  1.0
  Ag  Ag59  1  0.82566000  0.82566000  0.23078000  1.0
  Ag  Ag60  1  0.72320000  0.56260000  0.72320000  1.0
  Ag  Ag61  1  0.77680000  0.93740000  0.72320000  1.0
  Ag  Ag62  1  0.72320000  0.93740000  0.77680000  1.0
  Ag  Ag63  1  0.77680000  0.56260000  0.77680000  1.0
  Ag  Ag64  1  0.56260000  0.77680000  0.77680000  1.0
  Ag  Ag65  1  0.93740000  0.77680000  0.72320000  1.0
  Ag  Ag66  1  0.93740000  0.72320000  0.77680000  1.0
  Ag  Ag67  1  0.56260000  0.72320000  0.72320000  1.0
  Ag  Ag68  1  0.77680000  0.72320000  0.93740000  1.0
  Ag  Ag69  1  0.77680000  0.77680000  0.56260000  1.0
  Ag  Ag70  1  0.72320000  0.72320000  0.56260000  1.0
  Ag  Ag71  1  0.72320000  0.77680000  0.93740000  1.0
  H  H72  1  0.65130000  0.05580000  0.19560000  1.0
  H  H73  1  0.84870000  0.44420000  0.19560000  1.0
  H  H74  1  0.84870000  0.05580000  0.30440000  1.0
  H  H75  1  0.65130000  0.44420000  0.30440000  1.0
  H  H76  1  0.19560000  0.65130000  0.05580000  1.0
  H  H77  1  0.19560000  0.84870000  0.44420000  1.0
  H  H78  1  0.30440000  0.84870000  0.05580000  1.0
  H  H79  1  0.30440000  0.65130000  0.44420000  1.0
  H  H80  1  0.05580000  0.19560000  0.65130000  1.0
  H  H81  1  0.44420000  0.19560000  0.84870000  1.0
  H  H82  1  0.05580000  0.30440000  0.84870000  1.0
  H  H83  1  0.44420000  0.30440000  0.65130000  1.0
  H  H84  1  0.44420000  0.84870000  0.19560000  1.0
  H  H85  1  0.05580000  0.65130000  0.19560000  1.0
  H  H86  1  0.44420000  0.65130000  0.30440000  1.0
  H  H87  1  0.05580000  0.84870000  0.30440000  1.0
  H  H88  1  0.84870000  0.30440000  0.05580000  1.0
  H  H89  1  0.65130000  0.30440000  0.44420000  1.0
  H  H90  1  0.65130000  0.19560000  0.05580000  1.0
  H  H91  1  0.84870000  0.19560000  0.44420000  1.0
  H  H92  1  0.30440000  0.44420000  0.65130000  1.0
  H  H93  1  0.30440000  0.05580000  0.84870000  1.0
  H  H94  1  0.19560000  0.44420000  0.84870000  1.0
  H  H95  1  0.19560000  0.05580000  0.65130000  1.0
  H  H96  1  0.93670000  0.18070000  0.18070000  1.0
  H  H97  1  0.56330000  0.31930000  0.18070000  1.0
  H  H98  1  0.56330000  0.18070000  0.31930000  1.0
  H  H99  1  0.93670000  0.31930000  0.31930000  1.0
  H  H100  1  0.18070000  0.93670000  0.18070000  1.0
  H  H101  1  0.18070000  0.56330000  0.31930000  1.0
  H  H102  1  0.31930000  0.56330000  0.18070000  1.0
  H  H103  1  0.31930000  0.93670000  0.31930000  1.0
  H  H104  1  0.18070000  0.18070000  0.93670000  1.0
  H  H105  1  0.31930000  0.18070000  0.56330000  1.0
  H  H106  1  0.18070000  0.31930000  0.56330000  1.0
  H  H107  1  0.31930000  0.31930000  0.93670000  1.0
  H  H108  1  0.55580000  0.15130000  0.80440000  1.0
  H  H109  1  0.94420000  0.34870000  0.80440000  1.0
  H  H110  1  0.55580000  0.34870000  0.69560000  1.0
  H  H111  1  0.94420000  0.15130000  0.69560000  1.0
  H  H112  1  0.15130000  0.69560000  0.94420000  1.0
  H  H113  1  0.34870000  0.69560000  0.55580000  1.0
  H  H114  1  0.34870000  0.80440000  0.94420000  1.0
  H  H115  1  0.15130000  0.80440000  0.55580000  1.0
  H  H116  1  0.69560000  0.55580000  0.34870000  1.0
  H  H117  1  0.69560000  0.94420000  0.15130000  1.0
  H  H118  1  0.80440000  0.55580000  0.15130000  1.0
  H  H119  1  0.80440000  0.94420000  0.34870000  1.0
  H  H120  1  0.34870000  0.94420000  0.80440000  1.0
  H  H121  1  0.15130000  0.55580000  0.80440000  1.0
  H  H122  1  0.15130000  0.94420000  0.69560000  1.0
  H  H123  1  0.34870000  0.55580000  0.69560000  1.0
  H  H124  1  0.80440000  0.34870000  0.94420000  1.0
  H  H125  1  0.80440000  0.15130000  0.55580000  1.0
  H  H126  1  0.69560000  0.15130000  0.94420000  1.0
  H  H127  1  0.69560000  0.34870000  0.55580000  1.0
  H  H128  1  0.94420000  0.80440000  0.34870000  1.0
  H  H129  1  0.55580000  0.80440000  0.15130000  1.0
  H  H130  1  0.94420000  0.69560000  0.15130000  1.0
  H  H131  1  0.55580000  0.69560000  0.34870000  1.0
  H  H132  1  0.68070000  0.43670000  0.81930000  1.0
  H  H133  1  0.81930000  0.06330000  0.81930000  1.0
  H  H134  1  0.68070000  0.06330000  0.68070000  1.0
  H  H135  1  0.81930000  0.43670000  0.68070000  1.0
  H  H136  1  0.43670000  0.68070000  0.81930000  1.0
  H  H137  1  0.06330000  0.68070000  0.68070000  1.0
  H  H138  1  0.06330000  0.81930000  0.81930000  1.0
  H  H139  1  0.43670000  0.81930000  0.68070000  1.0
  H  H140  1  0.68070000  0.68070000  0.06330000  1.0
  H  H141  1  0.68070000  0.81930000  0.43670000  1.0
  H  H142  1  0.81930000  0.68070000  0.43670000  1.0
  H  H143  1  0.81930000  0.81930000  0.06330000  1.0
  C  C144  1  0.63700000  0.08460000  0.15990000  1.0
  C  C145  1  0.86300000  0.41540000  0.15990000  1.0
  C  C146  1  0.86300000  0.08460000  0.34010000  1.0
  C  C147  1  0.63700000  0.41540000  0.34010000  1.0
  C  C148  1  0.15990000  0.63700000  0.08460000  1.0
  C  C149  1  0.15990000  0.86300000  0.41540000  1.0
  C  C150  1  0.34010000  0.86300000  0.08460000  1.0
  C  C151  1  0.34010000  0.63700000  0.41540000  1.0
  C  C152  1  0.08460000  0.15990000  0.63700000  1.0
  C  C153  1  0.41540000  0.15990000  0.86300000  1.0
  C  C154  1  0.08460000  0.34010000  0.86300000  1.0
  C  C155  1  0.41540000  0.34010000  0.63700000  1.0
  C  C156  1  0.41540000  0.86300000  0.15990000  1.0
  C  C157  1  0.08460000  0.63700000  0.15990000  1.0
  C  C158  1  0.41540000  0.63700000  0.34010000  1.0
  C  C159  1  0.08460000  0.86300000  0.34010000  1.0
  C  C160  1  0.86300000  0.34010000  0.08460000  1.0
  C  C161  1  0.63700000  0.34010000  0.41540000  1.0
  C  C162  1  0.63700000  0.15990000  0.08460000  1.0
  C  C163  1  0.86300000  0.15990000  0.41540000  1.0
  C  C164  1  0.34010000  0.41540000  0.63700000  1.0
  C  C165  1  0.34010000  0.08460000  0.86300000  1.0
  C  C166  1  0.15990000  0.41540000  0.86300000  1.0
  C  C167  1  0.15990000  0.08460000  0.63700000  1.0
  C  C168  1  0.92130000  0.21300000  0.21300000  1.0
  C  C169  1  0.57870000  0.28700000  0.21300000  1.0
  C  C170  1  0.57870000  0.21300000  0.28700000  1.0
  C  C171  1  0.92130000  0.28700000  0.28700000  1.0
  C  C172  1  0.21300000  0.92130000  0.21300000  1.0
  C  C173  1  0.21300000  0.57870000  0.28700000  1.0
  C  C174  1  0.28700000  0.57870000  0.21300000  1.0
  C  C175  1  0.28700000  0.92130000  0.28700000  1.0
  C  C176  1  0.21300000  0.21300000  0.92130000  1.0
  C  C177  1  0.28700000  0.21300000  0.57870000  1.0
  C  C178  1  0.21300000  0.28700000  0.57870000  1.0
  C  C179  1  0.28700000  0.28700000  0.92130000  1.0
  C  C180  1  0.58460000  0.13700000  0.84010000  1.0
  C  C181  1  0.91540000  0.36300000  0.84010000  1.0
  C  C182  1  0.58460000  0.36300000  0.65990000  1.0
  C  C183  1  0.91540000  0.13700000  0.65990000  1.0
  C  C184  1  0.13700000  0.65990000  0.91540000  1.0
  C  C185  1  0.36300000  0.65990000  0.58460000  1.0
  C  C186  1  0.36300000  0.84010000  0.91540000  1.0
  C  C187  1  0.13700000  0.84010000  0.58460000  1.0
  C  C188  1  0.65990000  0.58460000  0.36300000  1.0
  C  C189  1  0.65990000  0.91540000  0.13700000  1.0
  C  C190  1  0.84010000  0.58460000  0.13700000  1.0
  C  C191  1  0.84010000  0.91540000  0.36300000  1.0
  C  C192  1  0.36300000  0.91540000  0.84010000  1.0
  C  C193  1  0.13700000  0.58460000  0.84010000  1.0
  C  C194  1  0.13700000  0.91540000  0.65990000  1.0
  C  C195  1  0.36300000  0.58460000  0.65990000  1.0
  C  C196  1  0.84010000  0.36300000  0.91540000  1.0
  C  C197  1  0.84010000  0.13700000  0.58460000  1.0
  C  C198  1  0.65990000  0.13700000  0.91540000  1.0
  C  C199  1  0.65990000  0.36300000  0.58460000  1.0
  C  C200  1  0.91540000  0.84010000  0.36300000  1.0
  C  C201  1  0.58460000  0.84010000  0.13700000  1.0
  C  C202  1  0.91540000  0.65990000  0.13700000  1.0
  C  C203  1  0.58460000  0.65990000  0.36300000  1.0
  C  C204  1  0.71300000  0.42130000  0.78700000  1.0
  C  C205  1  0.78700000  0.07870000  0.78700000  1.0
  C  C206  1  0.71300000  0.07870000  0.71300000  1.0
  C  C207  1  0.78700000  0.42130000  0.71300000  1.0
  C  C208  1  0.42130000  0.71300000  0.78700000  1.0
  C  C209  1  0.07870000  0.71300000  0.71300000  1.0
  C  C210  1  0.07870000  0.78700000  0.78700000  1.0
  C  C211  1  0.42130000  0.78700000  0.71300000  1.0
  C  C212  1  0.71300000  0.71300000  0.07870000  1.0
  C  C213  1  0.71300000  0.78700000  0.42130000  1.0
  C  C214  1  0.78700000  0.71300000  0.42130000  1.0
  C  C215  1  0.78700000  0.78700000  0.07870000  1.0
  N  N216  1  0.57400000  0.07970000  0.12970000  1.0
  N  N217  1  0.92600000  0.42030000  0.12970000  1.0
  N  N218  1  0.92600000  0.07970000  0.37030000  1.0
  N  N219  1  0.57400000  0.42030000  0.37030000  1.0
  N  N220  1  0.12970000  0.57400000  0.07970000  1.0
  N  N221  1  0.12970000  0.92600000  0.42030000  1.0
  N  N222  1  0.37030000  0.92600000  0.07970000  1.0
  N  N223  1  0.37030000  0.57400000  0.42030000  1.0
  N  N224  1  0.07970000  0.12970000  0.57400000  1.0
  N  N225  1  0.42030000  0.12970000  0.92600000  1.0
  N  N226  1  0.07970000  0.37030000  0.92600000  1.0
  N  N227  1  0.42030000  0.37030000  0.57400000  1.0
  N  N228  1  0.42030000  0.92600000  0.12970000  1.0
  N  N229  1  0.07970000  0.57400000  0.12970000  1.0
  N  N230  1  0.42030000  0.57400000  0.37030000  1.0
  N  N231  1  0.07970000  0.92600000  0.37030000  1.0
  N  N232  1  0.92600000  0.37030000  0.07970000  1.0
  N  N233  1  0.57400000  0.37030000  0.42030000  1.0
  N  N234  1  0.57400000  0.12970000  0.07970000  1.0
  N  N235  1  0.92600000  0.12970000  0.42030000  1.0
  N  N236  1  0.37030000  0.42030000  0.57400000  1.0
  N  N237  1  0.37030000  0.07970000  0.92600000  1.0
  N  N238  1  0.12970000  0.42030000  0.92600000  1.0
  N  N239  1  0.12970000  0.07970000  0.57400000  1.0
  N  N240  1  0.67600000  0.13390000  0.13390000  1.0
  N  N241  1  0.85560000  0.22640000  0.22640000  1.0
  N  N242  1  0.82400000  0.36610000  0.13390000  1.0
  N  N243  1  0.64440000  0.27360000  0.22640000  1.0
  N  N244  1  0.82400000  0.13390000  0.36610000  1.0
  N  N245  1  0.64440000  0.22640000  0.27360000  1.0
  N  N246  1  0.67600000  0.36610000  0.36610000  1.0
  N  N247  1  0.85560000  0.27360000  0.27360000  1.0
  N  N248  1  0.13390000  0.67600000  0.13390000  1.0
  N  N249  1  0.22640000  0.85560000  0.22640000  1.0
  N  N250  1  0.13390000  0.82400000  0.36610000  1.0
  N  N251  1  0.22640000  0.64440000  0.27360000  1.0
  N  N252  1  0.36610000  0.82400000  0.13390000  1.0
  N  N253  1  0.27360000  0.64440000  0.22640000  1.0
  N  N254  1  0.36610000  0.67600000  0.36610000  1.0
  N  N255  1  0.27360000  0.85560000  0.27360000  1.0
  N  N256  1  0.13390000  0.13390000  0.67600000  1.0
  N  N257  1  0.22640000  0.22640000  0.85560000  1.0
  N  N258  1  0.36610000  0.13390000  0.82400000  1.0
  N  N259  1  0.27360000  0.22640000  0.64440000  1.0
  N  N260  1  0.13390000  0.36610000  0.82400000  1.0
  N  N261  1  0.22640000  0.27360000  0.64440000  1.0
  N  N262  1  0.36610000  0.36610000  0.67600000  1.0
  N  N263  1  0.27360000  0.27360000  0.85560000  1.0
  N  N264  1  0.96030000  0.25000000  0.25000000  1.0
  N  N265  1  0.53970000  0.25000000  0.25000000  1.0
  N  N266  1  0.25000000  0.96030000  0.25000000  1.0
  N  N267  1  0.25000000  0.53970000  0.25000000  1.0
  N  N268  1  0.25000000  0.25000000  0.96030000  1.0
  N  N269  1  0.25000000  0.25000000  0.53970000  1.0
  N  N270  1  0.57970000  0.07400000  0.87030000  1.0
  N  N271  1  0.92030000  0.42600000  0.87030000  1.0
  N  N272  1  0.57970000  0.42600000  0.62970000  1.0
  N  N273  1  0.92030000  0.07400000  0.62970000  1.0
  N  N274  1  0.07400000  0.62970000  0.92030000  1.0
  N  N275  1  0.42600000  0.62970000  0.57970000  1.0
  N  N276  1  0.42600000  0.87030000  0.92030000  1.0
  N  N277  1  0.07400000  0.87030000  0.57970000  1.0
  N  N278  1  0.62970000  0.57970000  0.42600000  1.0
  N  N279  1  0.62970000  0.92030000  0.07400000  1.0
  N  N280  1  0.87030000  0.57970000  0.07400000  1.0
  N  N281  1  0.87030000  0.92030000  0.42600000  1.0
  N  N282  1  0.42600000  0.92030000  0.87030000  1.0
  N  N283  1  0.07400000  0.57970000  0.87030000  1.0
  N  N284  1  0.07400000  0.92030000  0.62970000  1.0
  N  N285  1  0.42600000  0.57970000  0.62970000  1.0
  N  N286  1  0.87030000  0.42600000  0.92030000  1.0
  N  N287  1  0.87030000  0.07400000  0.57970000  1.0
  N  N288  1  0.62970000  0.07400000  0.92030000  1.0
  N  N289  1  0.62970000  0.42600000  0.57970000  1.0
  N  N290  1  0.92030000  0.87030000  0.42600000  1.0
  N  N291  1  0.57970000  0.87030000  0.07400000  1.0
  N  N292  1  0.92030000  0.62970000  0.07400000  1.0
  N  N293  1  0.57970000  0.62970000  0.42600000  1.0
  N  N294  1  0.63390000  0.17600000  0.86610000  1.0
  N  N295  1  0.72640000  0.35560000  0.77360000  1.0
  N  N296  1  0.86610000  0.32400000  0.86610000  1.0
  N  N297  1  0.77360000  0.14440000  0.77360000  1.0
  N  N298  1  0.63390000  0.32400000  0.63390000  1.0
  N  N299  1  0.72640000  0.14440000  0.72640000  1.0
  N  N300  1  0.86610000  0.17600000  0.63390000  1.0
  N  N301  1  0.77360000  0.35560000  0.72640000  1.0
  N  N302  1  0.17600000  0.63390000  0.86610000  1.0
  N  N303  1  0.35560000  0.72640000  0.77360000  1.0
  N  N304  1  0.32400000  0.63390000  0.63390000  1.0
  N  N305  1  0.14440000  0.72640000  0.72640000  1.0
  N  N306  1  0.32400000  0.86610000  0.86610000  1.0
  N  N307  1  0.14440000  0.77360000  0.77360000  1.0
  N  N308  1  0.17600000  0.86610000  0.63390000  1.0
  N  N309  1  0.35560000  0.77360000  0.72640000  1.0
  N  N310  1  0.63390000  0.63390000  0.32400000  1.0
  N  N311  1  0.72640000  0.72640000  0.14440000  1.0
  N  N312  1  0.63390000  0.86610000  0.17600000  1.0
  N  N313  1  0.72640000  0.77360000  0.35560000  1.0
  N  N314  1  0.86610000  0.63390000  0.17600000  1.0
  N  N315  1  0.77360000  0.72640000  0.35560000  1.0
  N  N316  1  0.86610000  0.86610000  0.32400000  1.0
  N  N317  1  0.77360000  0.77360000  0.14440000  1.0
  N  N318  1  0.75000000  0.46030000  0.75000000  1.0
  N  N319  1  0.75000000  0.03970000  0.75000000  1.0
  N  N320  1  0.46030000  0.75000000  0.75000000  1.0
  N  N321  1  0.03970000  0.75000000  0.75000000  1.0
  N  N322  1  0.75000000  0.75000000  0.03970000  1.0
  N  N323  1  0.75000000  0.75000000  0.46030000  1.0
