# generated using pymatgen
data_ZnH3C3(N2O)2
_symmetry_space_group_name_H-M   'P 1'
_cell_length_a   13.00940000
_cell_length_b   13.80330000
_cell_length_c   16.82810000
_cell_angle_alpha   90.00000000
_cell_angle_beta   90.00000000
_cell_angle_gamma   90.00000000
_symmetry_Int_Tables_number   1
_chemical_formula_structural   ZnH3C3(N2O)2
_chemical_formula_sum   'Zn16 H48 C48 N64 O32'
_cell_volume   3021.86652863
_cell_formula_units_Z   16
loop_
 _symmetry_equiv_pos_site_id
 _symmetry_equiv_pos_as_xyz
  1  'x, y, z'
loop_
 _atom_site_type_symbol
 _atom_site_label
 _atom_site_symmetry_multiplicity
 _atom_site_fract_x
 _atom_site_fract_y
 _atom_site_fract_z
 _atom_site_occupancy
  Zn  Zn0  1  0.42561000  0.97787000  0.40449000  1.0
  Zn  Zn1  1  0.47683000  0.90730000  0.07598000  1.0
  Zn  Zn2  1  0.57439000  0.52213000  0.90449000  1.0
  Zn  Zn3  1  0.52317000  0.59270000  0.57598000  1.0
  Zn  Zn4  1  0.92561000  0.02213000  0.09551000  1.0
  Zn  Zn5  1  0.97683000  0.09270000  0.42402000  1.0
  Zn  Zn6  1  0.07439000  0.47787000  0.59551000  1.0
  Zn  Zn7  1  0.02317000  0.40730000  0.92402000  1.0
  Zn  Zn8  1  0.57439000  0.02213000  0.59551000  1.0
  Zn  Zn9  1  0.52317000  0.09270000  0.92402000  1.0
  Zn  Zn10  1  0.42561000  0.47787000  0.09551000  1.0
  Zn  Zn11  1  0.47683000  0.40730000  0.42402000  1.0
  Zn  Zn12  1  0.07439000  0.97787000  0.90449000  1.0
  Zn  Zn13  1  0.02317000  0.90730000  0.57598000  1.0
  Zn  Zn14  1  0.92561000  0.52213000  0.40449000  1.0
  Zn  Zn15  1  0.97683000  0.59270000  0.07598000  1.0
  H  H16  1  0.25100000  0.86580000  0.50220000  1.0
  H  H17  1  0.44630000  0.19520000  0.35480000  1.0
  H  H18  1  0.17250000  0.16740000  0.35590000  1.0
  H  H19  1  0.27910000  0.13240000  0.34140000  1.0
  H  H20  1  0.58620000  0.23760000  0.62440000  1.0
  H  H21  1  0.56470000  0.33130000  0.58370000  1.0
  H  H22  1  0.74900000  0.63420000  0.00220000  1.0
  H  H23  1  0.55370000  0.30480000  0.85480000  1.0
  H  H24  1  0.82750000  0.33260000  0.85590000  1.0
  H  H25  1  0.72090000  0.36760000  0.84140000  1.0
  H  H26  1  0.41380000  0.26240000  0.12440000  1.0
  H  H27  1  0.43530000  0.16870000  0.08370000  1.0
  H  H28  1  0.75100000  0.13420000  0.99780000  1.0
  H  H29  1  0.94630000  0.80480000  0.14520000  1.0
  H  H30  1  0.67250000  0.83260000  0.14410000  1.0
  H  H31  1  0.77910000  0.86760000  0.15860000  1.0
  H  H32  1  0.08620000  0.76240000  0.87560000  1.0
  H  H33  1  0.06470000  0.66870000  0.91630000  1.0
  H  H34  1  0.24900000  0.36580000  0.49780000  1.0
  H  H35  1  0.05370000  0.69520000  0.64520000  1.0
  H  H36  1  0.32750000  0.66740000  0.64410000  1.0
  H  H37  1  0.22090000  0.63240000  0.65860000  1.0
  H  H38  1  0.91380000  0.73760000  0.37560000  1.0
  H  H39  1  0.93530000  0.83130000  0.41630000  1.0
  H  H40  1  0.74900000  0.13420000  0.49780000  1.0
  H  H41  1  0.55370000  0.80480000  0.64520000  1.0
  H  H42  1  0.82750000  0.83260000  0.64410000  1.0
  H  H43  1  0.72090000  0.86760000  0.65860000  1.0
  H  H44  1  0.41380000  0.76240000  0.37560000  1.0
  H  H45  1  0.43530000  0.66870000  0.41630000  1.0
  H  H46  1  0.25100000  0.36580000  0.99780000  1.0
  H  H47  1  0.44630000  0.69520000  0.14520000  1.0
  H  H48  1  0.17250000  0.66740000  0.14410000  1.0
  H  H49  1  0.27910000  0.63240000  0.15860000  1.0
  H  H50  1  0.58620000  0.73760000  0.87560000  1.0
  H  H51  1  0.56470000  0.83130000  0.91630000  1.0
  H  H52  1  0.24900000  0.86580000  0.00220000  1.0
  H  H53  1  0.05370000  0.19520000  0.85480000  1.0
  H  H54  1  0.32750000  0.16740000  0.85590000  1.0
  H  H55  1  0.22090000  0.13240000  0.84140000  1.0
  H  H56  1  0.91380000  0.23760000  0.12440000  1.0
  H  H57  1  0.93530000  0.33130000  0.08370000  1.0
  H  H58  1  0.75100000  0.63420000  0.50220000  1.0
  H  H59  1  0.94630000  0.30480000  0.35480000  1.0
  H  H60  1  0.67250000  0.33260000  0.35590000  1.0
  H  H61  1  0.77910000  0.36760000  0.34140000  1.0
  H  H62  1  0.08620000  0.26240000  0.62440000  1.0
  H  H63  1  0.06470000  0.16870000  0.58370000  1.0
  C  C64  1  0.46840000  0.91030000  0.24570000  1.0
  C  C65  1  0.42240000  0.00820000  0.22229000  1.0
  C  C66  1  0.20220000  0.04740000  0.41150000  1.0
  C  C67  1  0.22180000  0.92040000  0.47909000  1.0
  C  C68  1  0.52710000  0.22026000  0.52009000  1.0
  C  C69  1  0.47110000  0.18821000  0.40631000  1.0
  C  C70  1  0.53160000  0.58970000  0.74570000  1.0
  C  C71  1  0.57760000  0.49180000  0.72229000  1.0
  C  C72  1  0.79780000  0.45260000  0.91150000  1.0
  C  C73  1  0.77820000  0.57960000  0.97909000  1.0
  C  C74  1  0.47290000  0.27974000  0.02009000  1.0
  C  C75  1  0.52890000  0.31179000  0.90631000  1.0
  C  C76  1  0.96840000  0.08970000  0.25430000  1.0
  C  C77  1  0.92240000  0.99180000  0.27771000  1.0
  C  C78  1  0.70220000  0.95260000  0.08850000  1.0
  C  C79  1  0.72180000  0.07960000  0.02091000  1.0
  C  C80  1  0.02710000  0.77974000  0.97991000  1.0
  C  C81  1  0.97110000  0.81179000  0.09369000  1.0
  C  C82  1  0.03160000  0.41030000  0.75430000  1.0
  C  C83  1  0.07760000  0.50820000  0.77771000  1.0
  C  C84  1  0.29780000  0.54740000  0.58850000  1.0
  C  C85  1  0.27820000  0.42040000  0.52091000  1.0
  C  C86  1  0.97290000  0.72026000  0.47991000  1.0
  C  C87  1  0.02890000  0.68821000  0.59369000  1.0
  C  C88  1  0.53160000  0.08970000  0.75430000  1.0
  C  C89  1  0.57760000  0.99180000  0.77771000  1.0
  C  C90  1  0.79780000  0.95260000  0.58850000  1.0
  C  C91  1  0.77820000  0.07960000  0.52091000  1.0
  C  C92  1  0.47290000  0.77974000  0.47991000  1.0
  C  C93  1  0.52890000  0.81179000  0.59369000  1.0
  C  C94  1  0.46840000  0.41030000  0.25430000  1.0
  C  C95  1  0.42240000  0.50820000  0.27771000  1.0
  C  C96  1  0.20220000  0.54740000  0.08850000  1.0
  C  C97  1  0.22180000  0.42040000  0.02091000  1.0
  C  C98  1  0.52710000  0.72026000  0.97991000  1.0
  C  C99  1  0.47110000  0.68821000  0.09369000  1.0
  C  C100  1  0.03160000  0.91030000  0.74570000  1.0
  C  C101  1  0.07760000  0.00820000  0.72229000  1.0
  C  C102  1  0.29780000  0.04740000  0.91150000  1.0
  C  C103  1  0.27820000  0.92040000  0.97909000  1.0
  C  C104  1  0.97290000  0.22026000  0.02009000  1.0
  C  C105  1  0.02890000  0.18821000  0.90631000  1.0
  C  C106  1  0.96840000  0.58970000  0.24570000  1.0
  C  C107  1  0.92240000  0.49180000  0.22229000  1.0
  C  C108  1  0.70220000  0.45260000  0.41150000  1.0
  C  C109  1  0.72180000  0.57960000  0.47909000  1.0
  C  C110  1  0.02710000  0.27974000  0.52009000  1.0
  C  C111  1  0.97110000  0.31179000  0.40631000  1.0
  N  N112  1  0.27289000  0.97924000  0.42902000  1.0
  N  N113  1  0.12737000  0.94755000  0.49200000  1.0
  N  N114  1  0.11361000  0.03145000  0.44798000  1.0
  N  N115  1  0.22010000  0.12530000  0.36370000  1.0
  N  N116  1  0.52300000  0.12401000  0.51552000  1.0
  N  N117  1  0.48595000  0.10416000  0.44006000  1.0
  N  N118  1  0.49511000  0.26319000  0.45302000  1.0
  N  N119  1  0.56380000  0.26900000  0.58381000  1.0
  N  N120  1  0.72711000  0.52076000  0.92902000  1.0
  N  N121  1  0.87263000  0.55245000  0.99200000  1.0
  N  N122  1  0.88639000  0.46855000  0.94798000  1.0
  N  N123  1  0.77990000  0.37470000  0.86370000  1.0
  N  N124  1  0.47700000  0.37599000  0.01552000  1.0
  N  N125  1  0.51405000  0.39584000  0.94006000  1.0
  N  N126  1  0.50489000  0.23681000  0.95302000  1.0
  N  N127  1  0.43620000  0.23100000  0.08381000  1.0
  N  N128  1  0.77289000  0.02076000  0.07098000  1.0
  N  N129  1  0.62737000  0.05245000  0.00800000  1.0
  N  N130  1  0.61361000  0.96855000  0.05202000  1.0
  N  N131  1  0.72010000  0.87470000  0.13630000  1.0
  N  N132  1  0.02300000  0.87599000  0.98448000  1.0
  N  N133  1  0.98595000  0.89584000  0.05994000  1.0
  N  N134  1  0.99511000  0.73681000  0.04698000  1.0
  N  N135  1  0.06380000  0.73100000  0.91619000  1.0
  N  N136  1  0.22711000  0.47924000  0.57098000  1.0
  N  N137  1  0.37263000  0.44755000  0.50800000  1.0
  N  N138  1  0.38639000  0.53145000  0.55202000  1.0
  N  N139  1  0.27990000  0.62530000  0.63630000  1.0
  N  N140  1  0.97700000  0.62401000  0.48448000  1.0
  N  N141  1  0.01405000  0.60416000  0.55994000  1.0
  N  N142  1  0.00489000  0.76319000  0.54698000  1.0
  N  N143  1  0.93620000  0.76900000  0.41619000  1.0
  N  N144  1  0.72711000  0.02076000  0.57098000  1.0
  N  N145  1  0.87263000  0.05245000  0.50800000  1.0
  N  N146  1  0.88639000  0.96855000  0.55202000  1.0
  N  N147  1  0.77990000  0.87470000  0.63630000  1.0
  N  N148  1  0.47700000  0.87599000  0.48448000  1.0
  N  N149  1  0.51405000  0.89584000  0.55994000  1.0
  N  N150  1  0.50489000  0.73681000  0.54698000  1.0
  N  N151  1  0.43620000  0.73100000  0.41619000  1.0
  N  N152  1  0.27289000  0.47924000  0.07098000  1.0
  N  N153  1  0.12737000  0.44755000  0.00800000  1.0
  N  N154  1  0.11361000  0.53145000  0.05202000  1.0
  N  N155  1  0.22010000  0.62530000  0.13630000  1.0
  N  N156  1  0.52300000  0.62401000  0.98448000  1.0
  N  N157  1  0.48595000  0.60416000  0.05994000  1.0
  N  N158  1  0.49511000  0.76319000  0.04698000  1.0
  N  N159  1  0.56380000  0.76900000  0.91619000  1.0
  N  N160  1  0.22711000  0.97924000  0.92902000  1.0
  N  N161  1  0.37263000  0.94755000  0.99200000  1.0
  N  N162  1  0.38639000  0.03145000  0.94798000  1.0
  N  N163  1  0.27990000  0.12530000  0.86370000  1.0
  N  N164  1  0.97700000  0.12401000  0.01552000  1.0
  N  N165  1  0.01405000  0.10416000  0.94006000  1.0
  N  N166  1  0.00489000  0.26319000  0.95302000  1.0
  N  N167  1  0.93620000  0.26900000  0.08381000  1.0
  N  N168  1  0.77289000  0.52076000  0.42902000  1.0
  N  N169  1  0.62737000  0.55245000  0.49200000  1.0
  N  N170  1  0.61361000  0.46855000  0.44798000  1.0
  N  N171  1  0.72010000  0.37470000  0.36370000  1.0
  N  N172  1  0.02300000  0.37599000  0.51552000  1.0
  N  N173  1  0.98595000  0.39584000  0.44006000  1.0
  N  N174  1  0.99511000  0.23681000  0.45302000  1.0
  N  N175  1  0.06380000  0.23100000  0.58381000  1.0
  O  O176  1  0.47620000  0.89111000  0.31791000  1.0
  O  O177  1  0.39460000  0.06039000  0.27832000  1.0
  O  O178  1  0.49770000  0.85581000  0.19134000  1.0
  O  O179  1  0.41820000  0.02452000  0.14953000  1.0
  O  O180  1  0.52380000  0.60889000  0.81791000  1.0
  O  O181  1  0.60540000  0.43961000  0.77832000  1.0
  O  O182  1  0.50230000  0.64419000  0.69134000  1.0
  O  O183  1  0.58180000  0.47548000  0.64953000  1.0
  O  O184  1  0.97620000  0.10889000  0.18209000  1.0
  O  O185  1  0.89460000  0.93961000  0.22168000  1.0
  O  O186  1  0.99770000  0.14419000  0.30866000  1.0
  O  O187  1  0.91820000  0.97548000  0.35047000  1.0
  O  O188  1  0.02380000  0.39111000  0.68209000  1.0
  O  O189  1  0.10540000  0.56039000  0.72168000  1.0
  O  O190  1  0.00230000  0.35581000  0.80866000  1.0
  O  O191  1  0.08180000  0.52452000  0.85047000  1.0
  O  O192  1  0.52380000  0.10889000  0.68209000  1.0
  O  O193  1  0.60540000  0.93961000  0.72168000  1.0
  O  O194  1  0.50230000  0.14419000  0.80866000  1.0
  O  O195  1  0.58180000  0.97548000  0.85047000  1.0
  O  O196  1  0.47620000  0.39111000  0.18209000  1.0
  O  O197  1  0.39460000  0.56039000  0.22168000  1.0
  O  O198  1  0.49770000  0.35581000  0.30866000  1.0
  O  O199  1  0.41820000  0.52452000  0.35047000  1.0
  O  O200  1  0.02380000  0.89111000  0.81791000  1.0
  O  O201  1  0.10540000  0.06039000  0.77832000  1.0
  O  O202  1  0.00230000  0.85581000  0.69134000  1.0
  O  O203  1  0.08180000  0.02452000  0.64953000  1.0
  O  O204  1  0.97620000  0.60889000  0.31791000  1.0
  O  O205  1  0.89460000  0.43961000  0.27832000  1.0
  O  O206  1  0.99770000  0.64419000  0.19134000  1.0
  O  O207  1  0.91820000  0.47548000  0.14953000  1.0
