# generated using pymatgen
data_EuH4(CO2)4
_symmetry_space_group_name_H-M   'P 1'
_cell_length_a   6.74270000
_cell_length_b   18.65300000
_cell_length_c   8.54600000
_cell_angle_alpha   90.00000000
_cell_angle_beta   90.00000000
_cell_angle_gamma   90.00000000
_symmetry_Int_Tables_number   1
_chemical_formula_structural   EuH4(CO2)4
_chemical_formula_sum   'Eu4 H16 C16 O32'
_cell_volume   1074.84394917
_cell_formula_units_Z   4
loop_
 _symmetry_equiv_pos_site_id
 _symmetry_equiv_pos_as_xyz
  1  'x, y, z'
loop_
 _atom_site_type_symbol
 _atom_site_label
 _atom_site_symmetry_multiplicity
 _atom_site_fract_x
 _atom_site_fract_y
 _atom_site_fract_z
 _atom_site_occupancy
  Eu  Eu0  1  0.50000000  0.64250000  0.25000000  1.0
  Eu  Eu1  1  0.00000000  0.14250000  0.25000000  1.0
  Eu  Eu2  1  0.50000000  0.35750000  0.75000000  1.0
  Eu  Eu3  1  0.00000000  0.85750000  0.75000000  1.0
  H  H4  1  0.79000000  0.71970000  0.95850000  1.0
  H  H5  1  0.29000000  0.21970000  0.95850000  1.0
  H  H6  1  0.21000000  0.28030000  0.45850000  1.0
  H  H7  1  0.71000000  0.78030000  0.45850000  1.0
  H  H8  1  0.21000000  0.71970000  0.54150000  1.0
  H  H9  1  0.71000000  0.21970000  0.54150000  1.0
  H  H10  1  0.79000000  0.28030000  0.04150000  1.0
  H  H11  1  0.29000000  0.78030000  0.04150000  1.0
  H  H12  1  0.00000000  0.67380000  0.25000000  1.0
  H  H13  1  0.50000000  0.17380000  0.25000000  1.0
  H  H14  1  0.00000000  0.32620000  0.75000000  1.0
  H  H15  1  0.50000000  0.82620000  0.75000000  1.0
  H  H16  1  0.29030000  0.50000000  0.50000000  1.0
  H  H17  1  0.79030000  0.00000000  0.50000000  1.0
  H  H18  1  0.70970000  0.50000000  0.00000000  1.0
  H  H19  1  0.20970000  0.00000000  0.00000000  1.0
  C  C20  1  0.76690000  0.75760000  0.02680000  1.0
  C  C21  1  0.26690000  0.25760000  0.02680000  1.0
  C  C22  1  0.23310000  0.24240000  0.52680000  1.0
  C  C23  1  0.73310000  0.74240000  0.52680000  1.0
  C  C24  1  0.23310000  0.75760000  0.47320000  1.0
  C  C25  1  0.73310000  0.25760000  0.47320000  1.0
  C  C26  1  0.76690000  0.24240000  0.97320000  1.0
  C  C27  1  0.26690000  0.74240000  0.97320000  1.0
  C  C28  1  0.00000000  0.62390000  0.25000000  1.0
  C  C29  1  0.50000000  0.12390000  0.25000000  1.0
  C  C30  1  0.00000000  0.37610000  0.75000000  1.0
  C  C31  1  0.50000000  0.87610000  0.75000000  1.0
  C  C32  1  0.42820000  0.50000000  0.50000000  1.0
  C  C33  1  0.92820000  0.00000000  0.50000000  1.0
  C  C34  1  0.57180000  0.50000000  0.00000000  1.0
  C  C35  1  0.07180000  0.00000000  0.00000000  1.0
  O  O36  1  0.83710000  0.59332000  0.22850000  1.0
  O  O37  1  0.82280000  0.81717000  0.98440000  1.0
  O  O38  1  0.68180000  0.74296000  0.15300000  1.0
  O  O39  1  0.51210000  0.54923000  0.43210000  1.0
  O  O40  1  0.33710000  0.09332000  0.22850000  1.0
  O  O41  1  0.32280000  0.31717000  0.98440000  1.0
  O  O42  1  0.18180000  0.24296000  0.15300000  1.0
  O  O43  1  0.01210000  0.04923000  0.43210000  1.0
  O  O44  1  0.16290000  0.40668000  0.72850000  1.0
  O  O45  1  0.17720000  0.18283000  0.48440000  1.0
  O  O46  1  0.31820000  0.25704000  0.65300000  1.0
  O  O47  1  0.48790000  0.45077000  0.93210000  1.0
  O  O48  1  0.66290000  0.90668000  0.72850000  1.0
  O  O49  1  0.67720000  0.68283000  0.48440000  1.0
  O  O50  1  0.81820000  0.75704000  0.65300000  1.0
  O  O51  1  0.98790000  0.95077000  0.93210000  1.0
  O  O52  1  0.16290000  0.59332000  0.27150000  1.0
  O  O53  1  0.17720000  0.81717000  0.51560000  1.0
  O  O54  1  0.31820000  0.74296000  0.34700000  1.0
  O  O55  1  0.48790000  0.54923000  0.06790000  1.0
  O  O56  1  0.66290000  0.09332000  0.27150000  1.0
  O  O57  1  0.67720000  0.31717000  0.51560000  1.0
  O  O58  1  0.81820000  0.24296000  0.34700000  1.0
  O  O59  1  0.98790000  0.04923000  0.06790000  1.0
  O  O60  1  0.83710000  0.40668000  0.77150000  1.0
  O  O61  1  0.82280000  0.18283000  0.01560000  1.0
  O  O62  1  0.68180000  0.25704000  0.84700000  1.0
  O  O63  1  0.51210000  0.45077000  0.56790000  1.0
  O  O64  1  0.33710000  0.90668000  0.77150000  1.0
  O  O65  1  0.32280000  0.68283000  0.01560000  1.0
  O  O66  1  0.18180000  0.75704000  0.84700000  1.0
  O  O67  1  0.01210000  0.95077000  0.56790000  1.0
