# generated using pymatgen
data_K5Cu5Ge2H14W18C7NO65
_symmetry_space_group_name_H-M   'P 1'
_cell_length_a   11.88100000
_cell_length_b   15.07000000
_cell_length_c   18.33800000
_cell_angle_alpha   66.01400000
_cell_angle_beta   76.90100000
_cell_angle_gamma   75.64600000
_symmetry_Int_Tables_number   1
_chemical_formula_structural   K5Cu5Ge2H14W18C7NO65
_chemical_formula_sum   'K5 Cu5 Ge2 H14 W18 C7 N1 O65'
_cell_volume   2876.64783863
_cell_formula_units_Z   1
loop_
 _symmetry_equiv_pos_site_id
 _symmetry_equiv_pos_as_xyz
  1  'x, y, z'
loop_
 _atom_site_type_symbol
 _atom_site_label
 _atom_site_symmetry_multiplicity
 _atom_site_fract_x
 _atom_site_fract_y
 _atom_site_fract_z
 _atom_site_occupancy
  K  K0  1  0.67700000  0.42700000  0.80000000  1.0
  K  K1  1  0.94270000  0.60620000  0.90010000  1.0
  K  K2  1  0.60220000  0.73820000  0.50820000  1.0
  K  K3  1  0.01100000  0.28850000  0.19830000  1.0
  K  K4  1  0.92490000  0.03280000  0.25670000  1.0
  Cu  Cu5  1  0.23890000  0.61630000  0.30800000  1.0
  Cu  Cu6  1  0.09740000  0.44140000  0.42680000  1.0
  Cu  Cu7  1  0.51880000  0.58790000  0.27190000  1.0
  Cu  Cu8  1  0.37930000  0.41450000  0.39170000  1.0
  Cu  Cu9  1  0.27550000  0.90090000  0.70400000  1.0
  Ge  Ge10  1  0.25960000  0.55000000  0.49820000  1.0
  Ge  Ge11  1  0.35610000  0.48300000  0.20170000  1.0
  H  H12  1  0.45460000  0.83840000  0.82570000  1.0
  H  H13  1  0.38930000  0.83850000  0.91150000  1.0
  H  H14  1  0.21770000  0.66080000  0.85050000  1.0
  H  H15  1  0.23810000  0.68430000  0.75640000  1.0
  H  H16  1  0.32880000  0.71140000  0.90110000  1.0
  H  H17  1  0.22300000  0.79910000  0.88110000  1.0
  H  H18  1  0.17650000  0.95130000  0.85600000  1.0
  H  H19  1  0.22330000  0.04330000  0.79470000  1.0
  H  H20  1  0.46820000  0.68560000  0.79940000  1.0
  H  H21  1  0.40940000  0.67250000  0.73740000  1.0
  H  H22  1  0.53620000  0.88050000  0.50830000  1.0
  H  H23  1  0.46200000  0.98640000  0.49310000  1.0
  H  H24  1  0.81620000  0.90980000  0.34260000  1.0
  H  H25  1  0.78070000  0.03070000  0.29220000  1.0
  W  W26  1  0.18530000  0.70821000  0.10479000  1.0
  W  W27  1  0.35890000  0.27437000  0.14709000  1.0
  W  W28  1  0.50790000  0.48399000  0.00422000  1.0
  W  W29  1  0.66800000  0.44744000  0.14693000  1.0
  W  W30  1  0.50840000  0.24581000  0.29402000  1.0
  W  W31  1  0.43320000  0.50811000  0.65354000  1.0
  W  W32  1  0.25640000  0.75655000  0.55322000  1.0
  W  W33  1  0.18240000  0.52350000  0.04653000  1.0
  W  W34  1  0.51010000  0.67099000  0.06159000  1.0
  W  W35  1  0.04200000  0.52345000  0.22965000  1.0
  W  W36  1  0.40240000  0.75256000  0.37142000  1.0
  W  W37  1  0.57440000  0.50807000  0.46982000  1.0
  W  W38  1  0.21330000  0.27853000  0.32832000  1.0
  W  W39  1  0.10670000  0.78540000  0.40580000  1.0
  W  W40  1  0.10520000  0.36075000  0.63766000  1.0
  W  W41  1  0.10740000  0.54806000  0.69519000  1.0
  W  W42  1  0.94720000  0.58466000  0.55203000  1.0
  W  W43  1  0.43100000  0.32347000  0.59497000  1.0
  C  C44  1  0.11900000  0.79400000  0.78800000  1.0
  C  C45  1  0.37900000  0.84500000  0.85800000  1.0
  C  C46  1  0.22400000  0.71300000  0.79730000  1.0
  C  C47  1  0.30400000  0.77600000  0.86200000  1.0
  C  C48  1  0.24300000  0.98400000  0.84100000  1.0
  C  C49  1  0.42300000  0.72100000  0.75500000  1.0
  C  C50  1  0.49300000  0.78100000  0.69200000  1.0
  N  N51  1  0.30700000  0.76700000  0.78700000  1.0
  O  O52  1  0.26800000  0.33400000  0.64200000  1.0
  O  O53  1  0.66300000  0.58900000  0.08930000  1.0
  O  O54  1  0.38500000  0.49200000  0.53600000  1.0
  O  O55  1  0.24300000  0.83100000  0.34880000  1.0
  O  O56  1  0.00200000  0.70600000  0.48790000  1.0
  O  O57  1  0.35500000  0.35800000  0.23950000  1.0
  O  O58  1  0.24700000  0.22600000  0.23500000  1.0
  O  O59  1  0.35800000  0.51500000  0.27890000  1.0
  O  O60  1  0.45600000  0.36800000  0.67700000  1.0
  O  O61  1  0.01200000  0.89500000  0.35660000  1.0
  O  O62  1  0.25400000  0.67700000  0.47040000  1.0
  O  O63  1  0.24600000  0.51700000  0.41200000  1.0
  O  O64  1  0.13000000  0.71000000  0.34810000  1.0
  O  O65  1  0.27700000  0.50700000  0.69300000  1.0
  O  O66  1  0.48600000  0.21200000  0.20390000  1.0
  O  O67  1  0.22550000  0.53930000  0.15410000  1.0
  O  O68  1  0.56800000  0.37200000  0.53700000  1.0
  O  O69  1  0.00000000  0.55400000  0.46000000  1.0
  O  O70  1  0.22400000  0.70200000  0.19870000  1.0
  O  O71  1  0.47600000  0.35300000  0.07200000  1.0
  O  O72  1  0.66200000  0.43500000  0.04900000  1.0
  O  O73  1  0.62600000  0.47900000  0.24400000  1.0
  O  O74  1  0.03500000  0.66500000  0.16710000  1.0
  O  O75  1  0.48400000  0.51400000  0.73200000  1.0
  O  O76  1  0.40600000  0.67560000  0.31890000  1.0
  O  O77  1  0.82200000  0.41500000  0.14400000  1.0
  O  O78  1  0.14100000  0.83300000  0.48610000  1.0
  O  O79  1  0.95100000  0.45100000  0.61500000  1.0
  O  O80  1  0.46900000  0.51600000  0.12050000  1.0
  O  O81  1  0.08800000  0.41100000  0.72500000  1.0
  O  O82  1  0.35800000  0.19280000  0.35710000  1.0
  O  O83  1  0.54000000  0.60700000  0.98000000  1.0
  O  O84  1  0.52400000  0.50600000  0.38000000  1.0
  O  O85  1  0.13030000  0.52400000  0.56960000  1.0
  O  O86  1  0.16100000  0.65600000  0.02600000  1.0
  O  O87  1  0.13200000  0.34800000  0.54420000  1.0
  O  O88  1  0.10800000  0.39750000  0.26100000  1.0
  O  O89  1  0.35000000  0.71000000  0.05490000  1.0
  O  O90  1  0.08900000  0.53800000  0.30900000  1.0
  O  O91  1  0.04500000  0.51500000  0.12400000  1.0
  O  O92  1  0.06000000  0.55700000  0.79000000  1.0
  O  O93  1  0.38900000  0.32800000  0.50700000  1.0
  O  O94  1  0.50000000  0.32200000  0.34900000  1.0
  O  O95  1  0.15300000  0.67400000  0.62630000  1.0
  O  O96  1  0.35400000  0.53340000  0.99870000  1.0
  O  O97  1  0.12800000  0.53100000  0.96000000  1.0
  O  O98  1  0.55900000  0.46800000  0.91600000  1.0
  O  O99  1  0.22800000  0.34400000  0.39570000  1.0
  O  O100  1  0.49300000  0.67010000  0.16730000  1.0
  O  O101  1  0.80300000  0.62800000  0.55020000  1.0
  O  O102  1  0.24500000  0.37700000  0.10120000  1.0
  O  O103  1  0.96700000  0.60100000  0.65000000  1.0
  O  O104  1  0.37200000  0.79500000  0.46400000  1.0
  O  O105  1  0.56800000  0.52300000  0.57800000  1.0
  O  O106  1  0.51050000  0.65660000  0.43170000  1.0
  O  O107  1  0.37500000  0.63800000  0.60360000  1.0
  O  O108  1  0.60900000  0.32700000  0.20800000  1.0
  O  O109  1  0.29200000  0.94800000  0.81440000  1.0
  O  O110  1  0.58600000  0.76500000  0.64100000  1.0
  O  O111  1  0.12300000  0.89100000  0.75300000  1.0
  O  O112  1  0.44500000  0.88300000  0.65500000  1.0
  O  O113  1  0.01600000  0.76000000  0.82700000  1.0
  O  O114  1  0.02300000  0.08500000  0.28100000  1.0
  O  O115  1  0.52900000  0.94800000  0.47200000  1.0
  O  O116  1  0.79000000  0.97600000  0.34300000  1.0
