# generated using pymatgen
data_Ag3H28C19SN8O5
_symmetry_space_group_name_H-M   'P 1'
_cell_length_a   11.10030000
_cell_length_b   12.30010000
_cell_length_c   43.00300000
_cell_angle_alpha   90.00000000
_cell_angle_beta   90.00000000
_cell_angle_gamma   90.00000000
_symmetry_Int_Tables_number   1
_chemical_formula_structural   Ag3H28C19SN8O5
_chemical_formula_sum   'Ag24 H224 C152 S8 N64 O40'
_cell_volume   5871.40600569
_cell_formula_units_Z   8
loop_
 _symmetry_equiv_pos_site_id
 _symmetry_equiv_pos_as_xyz
  1  'x, y, z'
loop_
 _atom_site_type_symbol
 _atom_site_label
 _atom_site_symmetry_multiplicity
 _atom_site_fract_x
 _atom_site_fract_y
 _atom_site_fract_z
 _atom_site_occupancy
  Ag  Ag0  1  0.49660000  0.88468000  0.98190000  1.0
  Ag  Ag1  1  0.65708000  0.59666000  0.86794000  1.0
  Ag  Ag2  1  0.68302000  0.86923000  0.25420000  1.0
  Ag  Ag3  1  0.50340000  0.61532000  0.48190000  1.0
  Ag  Ag4  1  0.34292000  0.90334000  0.36794000  1.0
  Ag  Ag5  1  0.31698000  0.63077000  0.75420000  1.0
  Ag  Ag6  1  0.99660000  0.11532000  0.51810000  1.0
  Ag  Ag7  1  0.15708000  0.40334000  0.63206000  1.0
  Ag  Ag8  1  0.18302000  0.13077000  0.24580000  1.0
  Ag  Ag9  1  0.00340000  0.38468000  0.01810000  1.0
  Ag  Ag10  1  0.84292000  0.09666000  0.13206000  1.0
  Ag  Ag11  1  0.81698000  0.36923000  0.74580000  1.0
  Ag  Ag12  1  0.50340000  0.11532000  0.01810000  1.0
  Ag  Ag13  1  0.34292000  0.40334000  0.13206000  1.0
  Ag  Ag14  1  0.31698000  0.13077000  0.74580000  1.0
  Ag  Ag15  1  0.49660000  0.38468000  0.51810000  1.0
  Ag  Ag16  1  0.65708000  0.09666000  0.63206000  1.0
  Ag  Ag17  1  0.68302000  0.36923000  0.24580000  1.0
  Ag  Ag18  1  0.00340000  0.88468000  0.48190000  1.0
  Ag  Ag19  1  0.84292000  0.59666000  0.36794000  1.0
  Ag  Ag20  1  0.81698000  0.86923000  0.75420000  1.0
  Ag  Ag21  1  0.99660000  0.61532000  0.98190000  1.0
  Ag  Ag22  1  0.15708000  0.90334000  0.86794000  1.0
  Ag  Ag23  1  0.18302000  0.63077000  0.25420000  1.0
  H  H24  1  0.43130000  0.96050000  0.10640000  1.0
  H  H25  1  0.47350000  0.90630000  0.15640000  1.0
  H  H26  1  0.66810000  0.65810000  0.12360000  1.0
  H  H27  1  0.62460000  0.71330000  0.07330000  1.0
  H  H28  1  0.64050000  0.77060000  0.92110000  1.0
  H  H29  1  0.51760000  0.70790000  0.92250000  1.0
  H  H30  1  0.72600000  0.72530000  0.99760000  1.0
  H  H31  1  0.76620000  0.78230000  0.96660000  1.0
  H  H32  1  0.53990000  0.62740000  0.00010000  1.0
  H  H33  1  0.45630000  0.61960000  0.97070000  1.0
  H  H34  1  0.82880000  0.54440000  0.92530000  1.0
  H  H35  1  0.82900000  0.67150000  0.92240000  1.0
  H  H36  1  0.76510000  0.45770000  0.97350000  1.0
  H  H37  1  0.72490000  0.52980000  0.00180000  1.0
  H  H38  1  0.51850000  0.50760000  0.92700000  1.0
  H  H39  1  0.64200000  0.44590000  0.92850000  1.0
  H  H40  1  0.79500000  0.50320000  0.80900000  1.0
  H  H41  1  0.67050000  0.44260000  0.80830000  1.0
  H  H42  1  0.68050000  0.76800000  0.81410000  1.0
  H  H43  1  0.80060000  0.70120000  0.81200000  1.0
  H  H44  1  0.48370000  0.54540000  0.81090000  1.0
  H  H45  1  0.48640000  0.67270000  0.81350000  1.0
  H  H46  1  0.77360000  0.62060000  0.73530000  1.0
  H  H47  1  0.85650000  0.61240000  0.76480000  1.0
  H  H48  1  0.58020000  0.52600000  0.73440000  1.0
  H  H49  1  0.54040000  0.45670000  0.76330000  1.0
  H  H50  1  0.54860000  0.78140000  0.76910000  1.0
  H  H51  1  0.58500000  0.72380000  0.73790000  1.0
  H  H52  1  0.56870000  0.53950000  0.60640000  1.0
  H  H53  1  0.52650000  0.59370000  0.65640000  1.0
  H  H54  1  0.33190000  0.84190000  0.62360000  1.0
  H  H55  1  0.37540000  0.78670000  0.57330000  1.0
  H  H56  1  0.35950000  0.72940000  0.42110000  1.0
  H  H57  1  0.48240000  0.79210000  0.42250000  1.0
  H  H58  1  0.27400000  0.77470000  0.49760000  1.0
  H  H59  1  0.23380000  0.71770000  0.46660000  1.0
  H  H60  1  0.46010000  0.87260000  0.50010000  1.0
  H  H61  1  0.54370000  0.88040000  0.47070000  1.0
  H  H62  1  0.17120000  0.95560000  0.42530000  1.0
  H  H63  1  0.17100000  0.82850000  0.42240000  1.0
  H  H64  1  0.23490000  0.04230000  0.47350000  1.0
  H  H65  1  0.27510000  0.97020000  0.50180000  1.0
  H  H66  1  0.48150000  0.99240000  0.42700000  1.0
  H  H67  1  0.35800000  0.05410000  0.42850000  1.0
  H  H68  1  0.20500000  0.99680000  0.30900000  1.0
  H  H69  1  0.32950000  0.05740000  0.30830000  1.0
  H  H70  1  0.31950000  0.73200000  0.31410000  1.0
  H  H71  1  0.19940000  0.79880000  0.31200000  1.0
  H  H72  1  0.51630000  0.95460000  0.31090000  1.0
  H  H73  1  0.51360000  0.82730000  0.31350000  1.0
  H  H74  1  0.22640000  0.87940000  0.23530000  1.0
  H  H75  1  0.14350000  0.88760000  0.26480000  1.0
  H  H76  1  0.41980000  0.97400000  0.23440000  1.0
  H  H77  1  0.45960000  0.04330000  0.26330000  1.0
  H  H78  1  0.45140000  0.71860000  0.26910000  1.0
  H  H79  1  0.41500000  0.77620000  0.23790000  1.0
  H  H80  1  0.93130000  0.03950000  0.39360000  1.0
  H  H81  1  0.97350000  0.09370000  0.34360000  1.0
  H  H82  1  0.16810000  0.34190000  0.37640000  1.0
  H  H83  1  0.12460000  0.28670000  0.42670000  1.0
  H  H84  1  0.14050000  0.22940000  0.57890000  1.0
  H  H85  1  0.01760000  0.29210000  0.57750000  1.0
  H  H86  1  0.22600000  0.27470000  0.50240000  1.0
  H  H87  1  0.26620000  0.21770000  0.53340000  1.0
  H  H88  1  0.03990000  0.37260000  0.49990000  1.0
  H  H89  1  0.95630000  0.38040000  0.52930000  1.0
  H  H90  1  0.32880000  0.45560000  0.57470000  1.0
  H  H91  1  0.32900000  0.32850000  0.57760000  1.0
  H  H92  1  0.26510000  0.54230000  0.52650000  1.0
  H  H93  1  0.22490000  0.47020000  0.49820000  1.0
  H  H94  1  0.01850000  0.49240000  0.57300000  1.0
  H  H95  1  0.14200000  0.55410000  0.57150000  1.0
  H  H96  1  0.29500000  0.49680000  0.69100000  1.0
  H  H97  1  0.17050000  0.55740000  0.69170000  1.0
  H  H98  1  0.18050000  0.23200000  0.68590000  1.0
  H  H99  1  0.30060000  0.29880000  0.68800000  1.0
  H  H100  1  0.98370000  0.45460000  0.68910000  1.0
  H  H101  1  0.98640000  0.32730000  0.68650000  1.0
  H  H102  1  0.27360000  0.37940000  0.76470000  1.0
  H  H103  1  0.35650000  0.38760000  0.73520000  1.0
  H  H104  1  0.08020000  0.47400000  0.76560000  1.0
  H  H105  1  0.04040000  0.54330000  0.73670000  1.0
  H  H106  1  0.04860000  0.21860000  0.73090000  1.0
  H  H107  1  0.08500000  0.27620000  0.76210000  1.0
  H  H108  1  0.06870000  0.46050000  0.89360000  1.0
  H  H109  1  0.02650000  0.40630000  0.84360000  1.0
  H  H110  1  0.83190000  0.15810000  0.87640000  1.0
  H  H111  1  0.87540000  0.21330000  0.92670000  1.0
  H  H112  1  0.85950000  0.27060000  0.07890000  1.0
  H  H113  1  0.98240000  0.20790000  0.07750000  1.0
  H  H114  1  0.77400000  0.22530000  0.00240000  1.0
  H  H115  1  0.73380000  0.28230000  0.03340000  1.0
  H  H116  1  0.96010000  0.12740000  0.99990000  1.0
  H  H117  1  0.04370000  0.11960000  0.02930000  1.0
  H  H118  1  0.67120000  0.04440000  0.07470000  1.0
  H  H119  1  0.67100000  0.17150000  0.07760000  1.0
  H  H120  1  0.73490000  0.95770000  0.02650000  1.0
  H  H121  1  0.77510000  0.02980000  0.99820000  1.0
  H  H122  1  0.98150000  0.00760000  0.07300000  1.0
  H  H123  1  0.85800000  0.94590000  0.07150000  1.0
  H  H124  1  0.70500000  0.00320000  0.19100000  1.0
  H  H125  1  0.82950000  0.94260000  0.19170000  1.0
  H  H126  1  0.81950000  0.26800000  0.18590000  1.0
  H  H127  1  0.69940000  0.20120000  0.18800000  1.0
  H  H128  1  0.01630000  0.04540000  0.18910000  1.0
  H  H129  1  0.01360000  0.17270000  0.18650000  1.0
  H  H130  1  0.72640000  0.12060000  0.26470000  1.0
  H  H131  1  0.64350000  0.11240000  0.23520000  1.0
  H  H132  1  0.91980000  0.02600000  0.26560000  1.0
  H  H133  1  0.95960000  0.95670000  0.23670000  1.0
  H  H134  1  0.95140000  0.28140000  0.23090000  1.0
  H  H135  1  0.91500000  0.22380000  0.26210000  1.0
  H  H136  1  0.56870000  0.03950000  0.89360000  1.0
  H  H137  1  0.52650000  0.09370000  0.84360000  1.0
  H  H138  1  0.33190000  0.34190000  0.87640000  1.0
  H  H139  1  0.37540000  0.28670000  0.92670000  1.0
  H  H140  1  0.35950000  0.22940000  0.07890000  1.0
  H  H141  1  0.48240000  0.29210000  0.07750000  1.0
  H  H142  1  0.27400000  0.27470000  0.00240000  1.0
  H  H143  1  0.23380000  0.21770000  0.03340000  1.0
  H  H144  1  0.46010000  0.37260000  0.99990000  1.0
  H  H145  1  0.54370000  0.38040000  0.02930000  1.0
  H  H146  1  0.17120000  0.45560000  0.07470000  1.0
  H  H147  1  0.17100000  0.32850000  0.07760000  1.0
  H  H148  1  0.23490000  0.54230000  0.02650000  1.0
  H  H149  1  0.27510000  0.47020000  0.99820000  1.0
  H  H150  1  0.48150000  0.49240000  0.07300000  1.0
  H  H151  1  0.35800000  0.55410000  0.07150000  1.0
  H  H152  1  0.20500000  0.49680000  0.19100000  1.0
  H  H153  1  0.32950000  0.55740000  0.19170000  1.0
  H  H154  1  0.31950000  0.23200000  0.18590000  1.0
  H  H155  1  0.19940000  0.29880000  0.18800000  1.0
  H  H156  1  0.51630000  0.45460000  0.18910000  1.0
  H  H157  1  0.51360000  0.32730000  0.18650000  1.0
  H  H158  1  0.22640000  0.37940000  0.26470000  1.0
  H  H159  1  0.14350000  0.38760000  0.23520000  1.0
  H  H160  1  0.41980000  0.47400000  0.26560000  1.0
  H  H161  1  0.45960000  0.54330000  0.23670000  1.0
  H  H162  1  0.45140000  0.21860000  0.23090000  1.0
  H  H163  1  0.41500000  0.27620000  0.26210000  1.0
  H  H164  1  0.43130000  0.46050000  0.39360000  1.0
  H  H165  1  0.47350000  0.40630000  0.34360000  1.0
  H  H166  1  0.66810000  0.15810000  0.37640000  1.0
  H  H167  1  0.62460000  0.21330000  0.42670000  1.0
  H  H168  1  0.64050000  0.27060000  0.57890000  1.0
  H  H169  1  0.51760000  0.20790000  0.57750000  1.0
  H  H170  1  0.72600000  0.22530000  0.50240000  1.0
  H  H171  1  0.76620000  0.28230000  0.53340000  1.0
  H  H172  1  0.53990000  0.12740000  0.49990000  1.0
  H  H173  1  0.45630000  0.11960000  0.52930000  1.0
  H  H174  1  0.82880000  0.04440000  0.57470000  1.0
  H  H175  1  0.82900000  0.17150000  0.57760000  1.0
  H  H176  1  0.76510000  0.95770000  0.52650000  1.0
  H  H177  1  0.72490000  0.02980000  0.49820000  1.0
  H  H178  1  0.51850000  0.00760000  0.57300000  1.0
  H  H179  1  0.64200000  0.94590000  0.57150000  1.0
  H  H180  1  0.79500000  0.00320000  0.69100000  1.0
  H  H181  1  0.67050000  0.94260000  0.69170000  1.0
  H  H182  1  0.68050000  0.26800000  0.68590000  1.0
  H  H183  1  0.80060000  0.20120000  0.68800000  1.0
  H  H184  1  0.48370000  0.04540000  0.68910000  1.0
  H  H185  1  0.48640000  0.17270000  0.68650000  1.0
  H  H186  1  0.77360000  0.12060000  0.76470000  1.0
  H  H187  1  0.85650000  0.11240000  0.73520000  1.0
  H  H188  1  0.58020000  0.02600000  0.76560000  1.0
  H  H189  1  0.54040000  0.95670000  0.73670000  1.0
  H  H190  1  0.54860000  0.28140000  0.73090000  1.0
  H  H191  1  0.58500000  0.22380000  0.76210000  1.0
  H  H192  1  0.06870000  0.96050000  0.60640000  1.0
  H  H193  1  0.02650000  0.90630000  0.65640000  1.0
  H  H194  1  0.83190000  0.65810000  0.62360000  1.0
  H  H195  1  0.87540000  0.71330000  0.57330000  1.0
  H  H196  1  0.85950000  0.77060000  0.42110000  1.0
  H  H197  1  0.98240000  0.70790000  0.42250000  1.0
  H  H198  1  0.77400000  0.72530000  0.49760000  1.0
  H  H199  1  0.73380000  0.78230000  0.46660000  1.0
  H  H200  1  0.96010000  0.62740000  0.50010000  1.0
  H  H201  1  0.04370000  0.61960000  0.47070000  1.0
  H  H202  1  0.67120000  0.54440000  0.42530000  1.0
  H  H203  1  0.67100000  0.67150000  0.42240000  1.0
  H  H204  1  0.73490000  0.45770000  0.47350000  1.0
  H  H205  1  0.77510000  0.52980000  0.50180000  1.0
  H  H206  1  0.98150000  0.50760000  0.42700000  1.0
  H  H207  1  0.85800000  0.44590000  0.42850000  1.0
  H  H208  1  0.70500000  0.50320000  0.30900000  1.0
  H  H209  1  0.82950000  0.44260000  0.30830000  1.0
  H  H210  1  0.81950000  0.76800000  0.31410000  1.0
  H  H211  1  0.69940000  0.70120000  0.31200000  1.0
  H  H212  1  0.01630000  0.54540000  0.31090000  1.0
  H  H213  1  0.01360000  0.67270000  0.31350000  1.0
  H  H214  1  0.72640000  0.62060000  0.23530000  1.0
  H  H215  1  0.64350000  0.61240000  0.26480000  1.0
  H  H216  1  0.91980000  0.52600000  0.23440000  1.0
  H  H217  1  0.95960000  0.45670000  0.26330000  1.0
  H  H218  1  0.95140000  0.78140000  0.26910000  1.0
  H  H219  1  0.91500000  0.72380000  0.23790000  1.0
  H  H220  1  0.93130000  0.53950000  0.10640000  1.0
  H  H221  1  0.97350000  0.59370000  0.15640000  1.0
  H  H222  1  0.16810000  0.84190000  0.12360000  1.0
  H  H223  1  0.12460000  0.78670000  0.07330000  1.0
  H  H224  1  0.14050000  0.72940000  0.92110000  1.0
  H  H225  1  0.01760000  0.79210000  0.92250000  1.0
  H  H226  1  0.22600000  0.77470000  0.99760000  1.0
  H  H227  1  0.26620000  0.71770000  0.96660000  1.0
  H  H228  1  0.03990000  0.87260000  0.00010000  1.0
  H  H229  1  0.95630000  0.88040000  0.97070000  1.0
  H  H230  1  0.32880000  0.95560000  0.92530000  1.0
  H  H231  1  0.32900000  0.82850000  0.92240000  1.0
  H  H232  1  0.26510000  0.04230000  0.97350000  1.0
  H  H233  1  0.22490000  0.97020000  0.00180000  1.0
  H  H234  1  0.01850000  0.99240000  0.92700000  1.0
  H  H235  1  0.14200000  0.05410000  0.92850000  1.0
  H  H236  1  0.29500000  0.99680000  0.80900000  1.0
  H  H237  1  0.17050000  0.05740000  0.80830000  1.0
  H  H238  1  0.18050000  0.73200000  0.81410000  1.0
  H  H239  1  0.30060000  0.79880000  0.81200000  1.0
  H  H240  1  0.98370000  0.95460000  0.81090000  1.0
  H  H241  1  0.98640000  0.82730000  0.81350000  1.0
  H  H242  1  0.27360000  0.87940000  0.73530000  1.0
  H  H243  1  0.35650000  0.88760000  0.76480000  1.0
  H  H244  1  0.08020000  0.97400000  0.73440000  1.0
  H  H245  1  0.04040000  0.04330000  0.76330000  1.0
  H  H246  1  0.04860000  0.71860000  0.76910000  1.0
  H  H247  1  0.08500000  0.77620000  0.73790000  1.0
  C  C248  1  0.50280000  0.88250000  0.05164000  1.0
  C  C249  1  0.52490000  0.84500000  0.08447000  1.0
  C  C250  1  0.48010000  0.90010000  0.10965000  1.0
  C  C251  1  0.50530000  0.86820000  0.13958000  1.0
  C  C252  1  0.57800000  0.77970000  0.14447000  1.0
  C  C253  1  0.62160000  0.71980000  0.12004000  1.0
  C  C254  1  0.59510000  0.75300000  0.09003000  1.0
  C  C255  1  0.60000000  0.70810000  0.93002000  1.0
  C  C256  1  0.72530000  0.71920000  0.97507000  1.0
  C  C257  1  0.53950000  0.62170000  0.97756000  1.0
  C  C258  1  0.78720000  0.61010000  0.93155000  1.0
  C  C259  1  0.72440000  0.52450000  0.97930000  1.0
  C  C260  1  0.60080000  0.51220000  0.93448000  1.0
  C  C261  1  0.71230000  0.50800000  0.80179000  1.0
  C  C262  1  0.71760000  0.70410000  0.80498000  1.0
  C  C263  1  0.52660000  0.61030000  0.80437000  1.0
  C  C264  1  0.77340000  0.61560000  0.75783000  1.0
  C  C265  1  0.58290000  0.52200000  0.75690000  1.0
  C  C266  1  0.58760000  0.71770000  0.76041000  1.0
  C  C267  1  0.49720000  0.61750000  0.55164000  1.0
  C  C268  1  0.47510000  0.65500000  0.58447000  1.0
  C  C269  1  0.51990000  0.59990000  0.60965000  1.0
  C  C270  1  0.49470000  0.63180000  0.63958000  1.0
  C  C271  1  0.42200000  0.72030000  0.64447000  1.0
  C  C272  1  0.37840000  0.78020000  0.62004000  1.0
  C  C273  1  0.40490000  0.74700000  0.59003000  1.0
  C  C274  1  0.40000000  0.79190000  0.43002000  1.0
  C  C275  1  0.27470000  0.78080000  0.47507000  1.0
  C  C276  1  0.46050000  0.87830000  0.47756000  1.0
  C  C277  1  0.21280000  0.88990000  0.43155000  1.0
  C  C278  1  0.27560000  0.97550000  0.47930000  1.0
  C  C279  1  0.39920000  0.98780000  0.43448000  1.0
  C  C280  1  0.28770000  0.99200000  0.30179000  1.0
  C  C281  1  0.28240000  0.79590000  0.30498000  1.0
  C  C282  1  0.47340000  0.88970000  0.30437000  1.0
  C  C283  1  0.22660000  0.88440000  0.25783000  1.0
  C  C284  1  0.41710000  0.97800000  0.25690000  1.0
  C  C285  1  0.41240000  0.78230000  0.26041000  1.0
  C  C286  1  0.00280000  0.11750000  0.44836000  1.0
  C  C287  1  0.02490000  0.15500000  0.41553000  1.0
  C  C288  1  0.98010000  0.09990000  0.39035000  1.0
  C  C289  1  0.00530000  0.13180000  0.36042000  1.0
  C  C290  1  0.07800000  0.22030000  0.35553000  1.0
  C  C291  1  0.12160000  0.28020000  0.37996000  1.0
  C  C292  1  0.09510000  0.24700000  0.40997000  1.0
  C  C293  1  0.10000000  0.29190000  0.56998000  1.0
  C  C294  1  0.22530000  0.28080000  0.52493000  1.0
  C  C295  1  0.03950000  0.37830000  0.52244000  1.0
  C  C296  1  0.28720000  0.38990000  0.56845000  1.0
  C  C297  1  0.22440000  0.47550000  0.52070000  1.0
  C  C298  1  0.10080000  0.48780000  0.56552000  1.0
  C  C299  1  0.21230000  0.49200000  0.69821000  1.0
  C  C300  1  0.21760000  0.29590000  0.69502000  1.0
  C  C301  1  0.02660000  0.38970000  0.69563000  1.0
  C  C302  1  0.27340000  0.38440000  0.74217000  1.0
  C  C303  1  0.08290000  0.47800000  0.74310000  1.0
  C  C304  1  0.08760000  0.28230000  0.73959000  1.0
  C  C305  1  0.99720000  0.38250000  0.94836000  1.0
  C  C306  1  0.97510000  0.34500000  0.91553000  1.0
  C  C307  1  0.01990000  0.40010000  0.89035000  1.0
  C  C308  1  0.99470000  0.36820000  0.86042000  1.0
  C  C309  1  0.92200000  0.27970000  0.85553000  1.0
  C  C310  1  0.87840000  0.21980000  0.87996000  1.0
  C  C311  1  0.90490000  0.25300000  0.90997000  1.0
  C  C312  1  0.90000000  0.20810000  0.06998000  1.0
  C  C313  1  0.77470000  0.21920000  0.02493000  1.0
  C  C314  1  0.96050000  0.12170000  0.02244000  1.0
  C  C315  1  0.71280000  0.11010000  0.06845000  1.0
  C  C316  1  0.77560000  0.02450000  0.02070000  1.0
  C  C317  1  0.89920000  0.01220000  0.06552000  1.0
  C  C318  1  0.78770000  0.00800000  0.19821000  1.0
  C  C319  1  0.78240000  0.20410000  0.19502000  1.0
  C  C320  1  0.97340000  0.11030000  0.19563000  1.0
  C  C321  1  0.72660000  0.11560000  0.24217000  1.0
  C  C322  1  0.91710000  0.02200000  0.24310000  1.0
  C  C323  1  0.91240000  0.21770000  0.23959000  1.0
  C  C324  1  0.49720000  0.11750000  0.94836000  1.0
  C  C325  1  0.47510000  0.15500000  0.91553000  1.0
  C  C326  1  0.51990000  0.09990000  0.89035000  1.0
  C  C327  1  0.49470000  0.13180000  0.86042000  1.0
  C  C328  1  0.42200000  0.22030000  0.85553000  1.0
  C  C329  1  0.37840000  0.28020000  0.87996000  1.0
  C  C330  1  0.40490000  0.24700000  0.90997000  1.0
  C  C331  1  0.40000000  0.29190000  0.06998000  1.0
  C  C332  1  0.27470000  0.28080000  0.02493000  1.0
  C  C333  1  0.46050000  0.37830000  0.02244000  1.0
  C  C334  1  0.21280000  0.38990000  0.06845000  1.0
  C  C335  1  0.27560000  0.47550000  0.02070000  1.0
  C  C336  1  0.39920000  0.48780000  0.06552000  1.0
  C  C337  1  0.28770000  0.49200000  0.19821000  1.0
  C  C338  1  0.28240000  0.29590000  0.19502000  1.0
  C  C339  1  0.47340000  0.38970000  0.19563000  1.0
  C  C340  1  0.22660000  0.38440000  0.24217000  1.0
  C  C341  1  0.41710000  0.47800000  0.24310000  1.0
  C  C342  1  0.41240000  0.28230000  0.23959000  1.0
  C  C343  1  0.50280000  0.38250000  0.44836000  1.0
  C  C344  1  0.52490000  0.34500000  0.41553000  1.0
  C  C345  1  0.48010000  0.40010000  0.39035000  1.0
  C  C346  1  0.50530000  0.36820000  0.36042000  1.0
  C  C347  1  0.57800000  0.27970000  0.35553000  1.0
  C  C348  1  0.62160000  0.21980000  0.37996000  1.0
  C  C349  1  0.59510000  0.25300000  0.40997000  1.0
  C  C350  1  0.60000000  0.20810000  0.56998000  1.0
  C  C351  1  0.72530000  0.21920000  0.52493000  1.0
  C  C352  1  0.53950000  0.12170000  0.52244000  1.0
  C  C353  1  0.78720000  0.11010000  0.56845000  1.0
  C  C354  1  0.72440000  0.02450000  0.52070000  1.0
  C  C355  1  0.60080000  0.01220000  0.56552000  1.0
  C  C356  1  0.71230000  0.00800000  0.69821000  1.0
  C  C357  1  0.71760000  0.20410000  0.69502000  1.0
  C  C358  1  0.52660000  0.11030000  0.69563000  1.0
  C  C359  1  0.77340000  0.11560000  0.74217000  1.0
  C  C360  1  0.58290000  0.02200000  0.74310000  1.0
  C  C361  1  0.58760000  0.21770000  0.73959000  1.0
  C  C362  1  0.99720000  0.88250000  0.55164000  1.0
  C  C363  1  0.97510000  0.84500000  0.58447000  1.0
  C  C364  1  0.01990000  0.90010000  0.60965000  1.0
  C  C365  1  0.99470000  0.86820000  0.63958000  1.0
  C  C366  1  0.92200000  0.77970000  0.64447000  1.0
  C  C367  1  0.87840000  0.71980000  0.62004000  1.0
  C  C368  1  0.90490000  0.75300000  0.59003000  1.0
  C  C369  1  0.90000000  0.70810000  0.43002000  1.0
  C  C370  1  0.77470000  0.71920000  0.47507000  1.0
  C  C371  1  0.96050000  0.62170000  0.47756000  1.0
  C  C372  1  0.71280000  0.61010000  0.43155000  1.0
  C  C373  1  0.77560000  0.52450000  0.47930000  1.0
  C  C374  1  0.89920000  0.51220000  0.43448000  1.0
  C  C375  1  0.78770000  0.50800000  0.30179000  1.0
  C  C376  1  0.78240000  0.70410000  0.30498000  1.0
  C  C377  1  0.97340000  0.61030000  0.30437000  1.0
  C  C378  1  0.72660000  0.61560000  0.25783000  1.0
  C  C379  1  0.91710000  0.52200000  0.25690000  1.0
  C  C380  1  0.91240000  0.71770000  0.26041000  1.0
  C  C381  1  0.00280000  0.61750000  0.05164000  1.0
  C  C382  1  0.02490000  0.65500000  0.08447000  1.0
  C  C383  1  0.98010000  0.59990000  0.10965000  1.0
  C  C384  1  0.00530000  0.63180000  0.13958000  1.0
  C  C385  1  0.07800000  0.72030000  0.14447000  1.0
  C  C386  1  0.12160000  0.78020000  0.12004000  1.0
  C  C387  1  0.09510000  0.74700000  0.09003000  1.0
  C  C388  1  0.10000000  0.79190000  0.93002000  1.0
  C  C389  1  0.22530000  0.78080000  0.97507000  1.0
  C  C390  1  0.03950000  0.87830000  0.97756000  1.0
  C  C391  1  0.28720000  0.88990000  0.93155000  1.0
  C  C392  1  0.22440000  0.97550000  0.97930000  1.0
  C  C393  1  0.10080000  0.98780000  0.93448000  1.0
  C  C394  1  0.21230000  0.99200000  0.80179000  1.0
  C  C395  1  0.21760000  0.79590000  0.80498000  1.0
  C  C396  1  0.02660000  0.88970000  0.80437000  1.0
  C  C397  1  0.27340000  0.88440000  0.75783000  1.0
  C  C398  1  0.08290000  0.97800000  0.75690000  1.0
  C  C399  1  0.08760000  0.78230000  0.76041000  1.0
  S  S400  1  0.61271000  0.73850000  0.18313000  1.0
  S  S401  1  0.38729000  0.76150000  0.68313000  1.0
  S  S402  1  0.11271000  0.26150000  0.31687000  1.0
  S  S403  1  0.88729000  0.23850000  0.81687000  1.0
  S  S404  1  0.38729000  0.26150000  0.81687000  1.0
  S  S405  1  0.61271000  0.23850000  0.31687000  1.0
  S  S406  1  0.88729000  0.73850000  0.68313000  1.0
  S  S407  1  0.11271000  0.76150000  0.18313000  1.0
  N  N408  1  0.59970000  0.71790000  0.96403000  1.0
  N  N409  1  0.66160000  0.60690000  0.91958000  1.0
  N  N410  1  0.79120000  0.61970000  0.96578000  1.0
  N  N411  1  0.60020000  0.52110000  0.96825000  1.0
  N  N412  1  0.65300000  0.60530000  0.81598000  1.0
  N  N413  1  0.71540000  0.71370000  0.77093000  1.0
  N  N414  1  0.71060000  0.51540000  0.76734000  1.0
  N  N415  1  0.52210000  0.61870000  0.77029000  1.0
  N  N416  1  0.40030000  0.78210000  0.46403000  1.0
  N  N417  1  0.33840000  0.89310000  0.41958000  1.0
  N  N418  1  0.20880000  0.88030000  0.46578000  1.0
  N  N419  1  0.39980000  0.97890000  0.46825000  1.0
  N  N420  1  0.34700000  0.89470000  0.31598000  1.0
  N  N421  1  0.28460000  0.78630000  0.27093000  1.0
  N  N422  1  0.28940000  0.98460000  0.26734000  1.0
  N  N423  1  0.47790000  0.88130000  0.27029000  1.0
  N  N424  1  0.09970000  0.28210000  0.53597000  1.0
  N  N425  1  0.16160000  0.39310000  0.58042000  1.0
  N  N426  1  0.29120000  0.38030000  0.53422000  1.0
  N  N427  1  0.10020000  0.47890000  0.53175000  1.0
  N  N428  1  0.15300000  0.39470000  0.68402000  1.0
  N  N429  1  0.21540000  0.28630000  0.72907000  1.0
  N  N430  1  0.21060000  0.48460000  0.73266000  1.0
  N  N431  1  0.02210000  0.38130000  0.72971000  1.0
  N  N432  1  0.90030000  0.21790000  0.03597000  1.0
  N  N433  1  0.83840000  0.10690000  0.08042000  1.0
  N  N434  1  0.70880000  0.11970000  0.03422000  1.0
  N  N435  1  0.89980000  0.02110000  0.03175000  1.0
  N  N436  1  0.84700000  0.10530000  0.18402000  1.0
  N  N437  1  0.78460000  0.21370000  0.22907000  1.0
  N  N438  1  0.78940000  0.01540000  0.23266000  1.0
  N  N439  1  0.97790000  0.11870000  0.22971000  1.0
  N  N440  1  0.40030000  0.28210000  0.03597000  1.0
  N  N441  1  0.33840000  0.39310000  0.08042000  1.0
  N  N442  1  0.20880000  0.38030000  0.03422000  1.0
  N  N443  1  0.39980000  0.47890000  0.03175000  1.0
  N  N444  1  0.34700000  0.39470000  0.18402000  1.0
  N  N445  1  0.28460000  0.28630000  0.22907000  1.0
  N  N446  1  0.28940000  0.48460000  0.23266000  1.0
  N  N447  1  0.47790000  0.38130000  0.22971000  1.0
  N  N448  1  0.59970000  0.21790000  0.53597000  1.0
  N  N449  1  0.66160000  0.10690000  0.58042000  1.0
  N  N450  1  0.79120000  0.11970000  0.53422000  1.0
  N  N451  1  0.60020000  0.02110000  0.53175000  1.0
  N  N452  1  0.65300000  0.10530000  0.68402000  1.0
  N  N453  1  0.71540000  0.21370000  0.72907000  1.0
  N  N454  1  0.71060000  0.01540000  0.73266000  1.0
  N  N455  1  0.52210000  0.11870000  0.72971000  1.0
  N  N456  1  0.90030000  0.71790000  0.46403000  1.0
  N  N457  1  0.83840000  0.60690000  0.41958000  1.0
  N  N458  1  0.70880000  0.61970000  0.46578000  1.0
  N  N459  1  0.89980000  0.52110000  0.46825000  1.0
  N  N460  1  0.84700000  0.60530000  0.31598000  1.0
  N  N461  1  0.78460000  0.71370000  0.27093000  1.0
  N  N462  1  0.78940000  0.51540000  0.26734000  1.0
  N  N463  1  0.97790000  0.61870000  0.27029000  1.0
  N  N464  1  0.09970000  0.78210000  0.96403000  1.0
  N  N465  1  0.16160000  0.89310000  0.91958000  1.0
  N  N466  1  0.29120000  0.88030000  0.96578000  1.0
  N  N467  1  0.10020000  0.97890000  0.96825000  1.0
  N  N468  1  0.15300000  0.89470000  0.81598000  1.0
  N  N469  1  0.21540000  0.78630000  0.77093000  1.0
  N  N470  1  0.21060000  0.98460000  0.76734000  1.0
  N  N471  1  0.02210000  0.88130000  0.77029000  1.0
  O  O472  1  0.55310000  0.83100000  0.03014000  1.0
  O  O473  1  0.43830000  0.96590000  0.04821000  1.0
  O  O474  1  0.58580000  0.83110000  0.20282000  1.0
  O  O475  1  0.73950000  0.70980000  0.18310000  1.0
  O  O476  1  0.53690000  0.64580000  0.18969000  1.0
  O  O477  1  0.44690000  0.66900000  0.53014000  1.0
  O  O478  1  0.56170000  0.53410000  0.54821000  1.0
  O  O479  1  0.41420000  0.66890000  0.70282000  1.0
  O  O480  1  0.26050000  0.79020000  0.68310000  1.0
  O  O481  1  0.46310000  0.85420000  0.68969000  1.0
  O  O482  1  0.05310000  0.16900000  0.46986000  1.0
  O  O483  1  0.93830000  0.03410000  0.45179000  1.0
  O  O484  1  0.08580000  0.16890000  0.29718000  1.0
  O  O485  1  0.23950000  0.29020000  0.31690000  1.0
  O  O486  1  0.03690000  0.35420000  0.31031000  1.0
  O  O487  1  0.94690000  0.33100000  0.96986000  1.0
  O  O488  1  0.06170000  0.46590000  0.95179000  1.0
  O  O489  1  0.91420000  0.33110000  0.79718000  1.0
  O  O490  1  0.76050000  0.20980000  0.81690000  1.0
  O  O491  1  0.96310000  0.14580000  0.81031000  1.0
  O  O492  1  0.44690000  0.16900000  0.96986000  1.0
  O  O493  1  0.56170000  0.03410000  0.95179000  1.0
  O  O494  1  0.41420000  0.16890000  0.79718000  1.0
  O  O495  1  0.26050000  0.29020000  0.81690000  1.0
  O  O496  1  0.46310000  0.35420000  0.81031000  1.0
  O  O497  1  0.55310000  0.33100000  0.46986000  1.0
  O  O498  1  0.43830000  0.46590000  0.45179000  1.0
  O  O499  1  0.58580000  0.33110000  0.29718000  1.0
  O  O500  1  0.73950000  0.20980000  0.31690000  1.0
  O  O501  1  0.53690000  0.14580000  0.31031000  1.0
  O  O502  1  0.94690000  0.83100000  0.53014000  1.0
  O  O503  1  0.06170000  0.96590000  0.54821000  1.0
  O  O504  1  0.91420000  0.83110000  0.70282000  1.0
  O  O505  1  0.76050000  0.70980000  0.68310000  1.0
  O  O506  1  0.96310000  0.64580000  0.68969000  1.0
  O  O507  1  0.05310000  0.66900000  0.03014000  1.0
  O  O508  1  0.93830000  0.53410000  0.04821000  1.0
  O  O509  1  0.08580000  0.66890000  0.20282000  1.0
  O  O510  1  0.23950000  0.79020000  0.18310000  1.0
  O  O511  1  0.03690000  0.85420000  0.18969000  1.0
