# generated using pymatgen
data_MnH8(C7O3)2
_symmetry_space_group_name_H-M   'P 1'
_cell_length_a   12.54970000
_cell_length_b   17.74720000
_cell_length_c   21.78300000
_cell_angle_alpha   90.00000000
_cell_angle_beta   90.00000000
_cell_angle_gamma   97.50700000
_symmetry_Int_Tables_number   1
_chemical_formula_structural   MnH8(C7O3)2
_chemical_formula_sum   'Mn12 H96 C168 O72'
_cell_volume   4809.97098619
_cell_formula_units_Z   12
loop_
 _symmetry_equiv_pos_site_id
 _symmetry_equiv_pos_as_xyz
  1  'x, y, z'
loop_
 _atom_site_type_symbol
 _atom_site_label
 _atom_site_symmetry_multiplicity
 _atom_site_fract_x
 _atom_site_fract_y
 _atom_site_fract_z
 _atom_site_occupancy
  Mn  Mn0  1  0.82768000  0.46729000  0.84599000  1.0
  Mn  Mn1  1  0.09004000  0.03984000  0.59418000  1.0
  Mn  Mn2  1  0.17232000  0.03271000  0.34599000  1.0
  Mn  Mn3  1  0.47253000  0.02939000  0.62938000  1.0
  Mn  Mn4  1  0.90996000  0.46016000  0.09418000  1.0
  Mn  Mn5  1  0.17232000  0.53271000  0.15401000  1.0
  Mn  Mn6  1  0.90996000  0.96016000  0.40582000  1.0
  Mn  Mn7  1  0.47253000  0.52939000  0.87062000  1.0
  Mn  Mn8  1  0.09004000  0.53984000  0.90582000  1.0
  Mn  Mn9  1  0.82768000  0.96729000  0.65401000  1.0
  Mn  Mn10  1  0.52747000  0.97061000  0.37062000  1.0
  Mn  Mn11  1  0.52747000  0.47061000  0.12938000  1.0
  H  H12  1  0.19420000  0.22530000  0.48480000  1.0
  H  H13  1  0.21280000  0.97180000  0.78710000  1.0
  H  H14  1  0.08890000  0.32170000  0.89720000  1.0
  H  H15  1  0.21280000  0.47180000  0.71290000  1.0
  H  H16  1  0.33900000  0.12990000  0.97440000  1.0
  H  H17  1  0.89080000  0.30580000  0.39690000  1.0
  H  H18  1  0.65340000  0.49840000  0.52700000  1.0
  H  H19  1  0.03060000  0.61870000  0.43580000  1.0
  H  H20  1  0.56220000  0.10240000  0.06780000  1.0
  H  H21  1  0.56220000  0.60240000  0.43220000  1.0
  H  H22  1  0.78720000  0.52820000  0.28710000  1.0
  H  H23  1  0.91110000  0.17830000  0.39720000  1.0
  H  H24  1  0.10920000  0.19420000  0.89690000  1.0
  H  H25  1  0.68100000  0.74330000  0.02720000  1.0
  H  H26  1  0.43780000  0.89760000  0.93220000  1.0
  H  H27  1  0.29240000  0.80730000  0.36690000  1.0
  H  H28  1  0.21310000  0.43350000  0.93510000  1.0
  H  H29  1  0.08890000  0.82170000  0.60280000  1.0
  H  H30  1  0.31900000  0.25670000  0.97280000  1.0
  H  H31  1  0.85020000  0.97490000  0.03830000  1.0
  H  H32  1  0.24130000  0.55510000  0.30610000  1.0
  H  H33  1  0.16510000  0.22230000  0.64020000  1.0
  H  H34  1  0.62620000  0.17850000  0.89370000  1.0
  H  H35  1  0.50320000  0.56000000  0.67740000  1.0
  H  H36  1  0.00930000  0.25850000  0.57700000  1.0
  H  H37  1  0.31900000  0.75670000  0.52720000  1.0
  H  H38  1  0.49680000  0.44000000  0.32260000  1.0
  H  H39  1  0.85020000  0.47490000  0.46170000  1.0
  H  H40  1  0.83490000  0.27770000  0.14020000  1.0
  H  H41  1  0.75870000  0.94490000  0.80610000  1.0
  H  H42  1  0.34230000  0.57820000  0.08610000  1.0
  H  H43  1  0.17910000  0.35380000  0.47850000  1.0
  H  H44  1  0.59600000  0.30310000  0.88500000  1.0
  H  H45  1  0.34230000  0.07820000  0.41390000  1.0
  H  H46  1  0.83490000  0.77770000  0.35980000  1.0
  H  H47  1  0.78690000  0.56650000  0.06490000  1.0
  H  H48  1  0.14480000  0.34950000  0.64080000  1.0
  H  H49  1  0.89080000  0.80580000  0.10310000  1.0
  H  H50  1  0.24130000  0.05510000  0.19390000  1.0
  H  H51  1  0.37380000  0.32150000  0.39370000  1.0
  H  H52  1  0.34660000  0.00160000  0.02700000  1.0
  H  H53  1  0.14980000  0.02510000  0.96170000  1.0
  H  H54  1  0.65770000  0.42180000  0.91390000  1.0
  H  H55  1  0.46040000  0.77090000  0.93030000  1.0
  H  H56  1  0.66820000  0.31580000  0.62010000  1.0
  H  H57  1  0.46040000  0.27090000  0.56970000  1.0
  H  H58  1  0.53960000  0.22910000  0.06970000  1.0
  H  H59  1  0.50320000  0.06000000  0.82260000  1.0
  H  H60  1  0.85520000  0.15050000  0.14080000  1.0
  H  H61  1  0.70760000  0.19270000  0.63310000  1.0
  H  H62  1  0.05540000  0.43670000  0.32700000  1.0
  H  H63  1  0.53960000  0.72910000  0.43030000  1.0
  H  H64  1  0.33900000  0.62990000  0.52560000  1.0
  H  H65  1  0.68100000  0.24330000  0.47280000  1.0
  H  H66  1  0.82090000  0.64620000  0.52150000  1.0
  H  H67  1  0.03060000  0.11870000  0.06420000  1.0
  H  H68  1  0.91110000  0.67830000  0.10280000  1.0
  H  H69  1  0.96940000  0.38130000  0.56420000  1.0
  H  H70  1  0.33180000  0.18420000  0.12010000  1.0
  H  H71  1  0.19420000  0.72530000  0.01520000  1.0
  H  H72  1  0.00930000  0.75850000  0.92300000  1.0
  H  H73  1  0.43780000  0.39760000  0.56780000  1.0
  H  H74  1  0.16510000  0.72230000  0.85980000  1.0
  H  H75  1  0.05540000  0.93670000  0.17300000  1.0
  H  H76  1  0.66100000  0.87010000  0.02560000  1.0
  H  H77  1  0.78720000  0.02820000  0.21290000  1.0
  H  H78  1  0.94460000  0.56330000  0.67300000  1.0
  H  H79  1  0.99070000  0.74150000  0.42300000  1.0
  H  H80  1  0.37380000  0.82150000  0.10630000  1.0
  H  H81  1  0.99070000  0.24150000  0.07700000  1.0
  H  H82  1  0.21310000  0.93350000  0.56490000  1.0
  H  H83  1  0.65770000  0.92180000  0.58610000  1.0
  H  H84  1  0.14480000  0.84950000  0.85920000  1.0
  H  H85  1  0.40400000  0.69690000  0.11500000  1.0
  H  H86  1  0.70760000  0.69270000  0.86690000  1.0
  H  H87  1  0.94460000  0.06330000  0.82700000  1.0
  H  H88  1  0.66100000  0.37010000  0.47440000  1.0
  H  H89  1  0.10920000  0.69420000  0.60310000  1.0
  H  H90  1  0.59600000  0.80310000  0.61500000  1.0
  H  H91  1  0.14980000  0.52510000  0.53830000  1.0
  H  H92  1  0.66820000  0.81580000  0.87990000  1.0
  H  H93  1  0.40400000  0.19690000  0.38500000  1.0
  H  H94  1  0.29240000  0.30730000  0.13310000  1.0
  H  H95  1  0.65340000  0.99840000  0.97300000  1.0
  H  H96  1  0.75870000  0.44490000  0.69390000  1.0
  H  H97  1  0.96940000  0.88130000  0.93580000  1.0
  H  H98  1  0.85520000  0.65050000  0.35920000  1.0
  H  H99  1  0.34660000  0.50160000  0.47300000  1.0
  H  H100  1  0.33180000  0.68420000  0.37990000  1.0
  H  H101  1  0.82090000  0.14620000  0.97850000  1.0
  H  H102  1  0.80580000  0.77470000  0.51520000  1.0
  H  H103  1  0.17910000  0.85380000  0.02150000  1.0
  H  H104  1  0.80580000  0.27470000  0.98480000  1.0
  H  H105  1  0.49680000  0.94000000  0.17740000  1.0
  H  H106  1  0.78690000  0.06650000  0.43510000  1.0
  H  H107  1  0.62620000  0.67850000  0.60630000  1.0
  C  C108  1  0.23950000  0.26980000  0.11880000  1.0
  C  C109  1  0.13840000  0.28840000  0.10500000  1.0
  C  C110  1  0.18510000  0.14090000  0.09160000  1.0
  C  C111  1  0.62360000  0.01100000  0.73410000  1.0
  C  C112  1  0.62040000  0.75930000  0.04490000  1.0
  C  C113  1  0.38310000  0.36200000  0.58300000  1.0
  C  C114  1  0.68550000  0.76760000  0.39500000  1.0
  C  C115  1  0.43770000  0.37440000  0.92400000  1.0
  C  C116  1  0.73670000  0.30420000  0.61150000  1.0
  C  C117  1  0.45340000  0.29290000  0.92730000  1.0
  C  C118  1  0.86160000  0.71160000  0.89500000  1.0
  C  C119  1  0.07340000  0.01620000  0.79740000  1.0
  C  C120  1  0.96760000  0.65920000  0.56120000  1.0
  C  C121  1  0.13370000  0.74130000  0.03310000  1.0
  C  C122  1  0.45520000  0.23170000  0.40420000  1.0
  C  C123  1  0.91700000  0.84310000  0.92200000  1.0
  C  C124  1  0.71130000  0.46790000  0.66970000  1.0
  C  C125  1  0.91700000  0.34310000  0.57800000  1.0
  C  C126  1  0.64720000  0.99990000  0.93050000  1.0
  C  C127  1  0.05220000  0.18780000  0.44310000  1.0
  C  C128  1  0.43720000  0.30640000  0.40850000  1.0
  C  C129  1  0.96180000  0.98780000  0.26820000  1.0
  C  C130  1  0.68550000  0.26760000  0.10500000  1.0
  C  C131  1  0.20790000  0.83380000  0.87390000  1.0
  C  C132  1  0.79210000  0.16620000  0.12610000  1.0
  C  C133  1  0.36790000  0.49340000  0.30380000  1.0
  C  C134  1  0.28970000  0.88600000  0.89550000  1.0
  C  C135  1  0.96130000  0.44940000  0.39990000  1.0
  C  C136  1  0.38310000  0.86200000  0.91700000  1.0
  C  C137  1  0.56990000  0.03630000  0.90370000  1.0
  C  C138  1  0.43770000  0.87440000  0.57600000  1.0
  C  C139  1  0.73670000  0.80420000  0.88850000  1.0
  C  C140  1  0.13030000  0.52250000  0.57950000  1.0
  C  C141  1  0.04840000  0.21060000  0.91400000  1.0
  C  C142  1  0.36790000  0.99340000  0.19620000  1.0
  C  C143  1  0.64720000  0.49990000  0.56950000  1.0
  C  C144  1  0.12430000  0.81800000  0.03610000  1.0
  C  C145  1  0.51430000  0.35790000  0.43490000  1.0
  C  C146  1  0.18510000  0.64090000  0.40840000  1.0
  C  C147  1  0.76050000  0.23020000  0.61880000  1.0
  C  C148  1  0.03870000  0.05060000  0.89990000  1.0
  C  C149  1  0.62040000  0.25930000  0.45510000  1.0
  C  C150  1  0.61690000  0.13800000  0.08300000  1.0
  C  C151  1  0.56230000  0.62560000  0.07600000  1.0
  C  C152  1  0.03820000  0.51220000  0.76820000  1.0
  C  C153  1  0.86630000  0.25870000  0.96690000  1.0
  C  C154  1  0.71640000  0.46530000  0.60640000  1.0
  C  C155  1  0.81490000  0.35910000  0.59160000  1.0
  C  C156  1  0.71640000  0.96530000  0.89360000  1.0
  C  C157  1  0.95160000  0.78940000  0.08600000  1.0
  C  C158  1  0.95160000  0.28940000  0.41400000  1.0
  C  C159  1  0.56280000  0.19360000  0.90850000  1.0
  C  C160  1  0.22080000  0.25770000  0.62590000  1.0
  C  C161  1  0.55910000  0.53800000  0.65960000  1.0
  C  C162  1  0.62360000  0.51100000  0.76590000  1.0
  C  C163  1  0.67560000  0.85060000  0.39370000  1.0
  C  C164  1  0.60350000  0.71390000  0.41640000  1.0
  C  C165  1  0.81490000  0.85910000  0.90840000  1.0
  C  C166  1  0.76050000  0.73020000  0.88120000  1.0
  C  C167  1  0.61690000  0.63800000  0.41700000  1.0
  C  C168  1  0.60760000  0.83490000  0.04240000  1.0
  C  C169  1  0.71030000  0.11400000  0.10450000  1.0
  C  C170  1  0.28360000  0.03470000  0.10640000  1.0
  C  C171  1  0.55910000  0.03800000  0.84040000  1.0
  C  C172  1  0.94030000  0.76950000  0.91470000  1.0
  C  C173  1  0.67560000  0.35060000  0.10630000  1.0
  C  C174  1  0.48570000  0.64210000  0.56510000  1.0
  C  C175  1  0.96180000  0.48780000  0.23180000  1.0
  C  C176  1  0.86630000  0.75870000  0.53310000  1.0
  C  C177  1  0.31450000  0.23240000  0.60500000  1.0
  C  C178  1  0.44090000  0.96200000  0.15960000  1.0
  C  C179  1  0.60760000  0.33490000  0.45760000  1.0
  C  C180  1  0.32440000  0.14940000  0.60630000  1.0
  C  C181  1  0.32440000  0.64940000  0.89370000  1.0
  C  C182  1  0.79210000  0.66620000  0.37390000  1.0
  C  C183  1  0.22080000  0.75770000  0.87410000  1.0
  C  C184  1  0.56230000  0.12560000  0.42400000  1.0
  C  C185  1  0.37960000  0.74070000  0.54490000  1.0
  C  C186  1  0.23950000  0.76980000  0.38120000  1.0
  C  C187  1  0.99180000  0.95370000  0.16050000  1.0
  C  C188  1  0.54660000  0.20710000  0.42730000  1.0
  C  C189  1  0.43010000  0.96370000  0.09630000  1.0
  C  C190  1  0.05220000  0.68780000  0.05690000  1.0
  C  C191  1  0.08300000  0.15690000  0.07800000  1.0
  C  C192  1  0.39650000  0.78610000  0.91640000  1.0
  C  C193  1  0.39240000  0.16510000  0.95760000  1.0
  C  C194  1  0.28970000  0.38600000  0.60450000  1.0
  C  C195  1  0.05700000  0.10440000  0.45030000  1.0
  C  C196  1  0.86970000  0.47750000  0.42050000  1.0
  C  C197  1  0.26330000  0.19580000  0.11150000  1.0
  C  C198  1  0.16720000  0.98970000  0.81570000  1.0
  C  C199  1  0.35280000  0.00010000  0.06950000  1.0
  C  C200  1  0.54480000  0.76830000  0.59580000  1.0
  C  C201  1  0.05970000  0.23050000  0.08530000  1.0
  C  C202  1  0.77920000  0.74230000  0.37410000  1.0
  C  C203  1  0.39650000  0.28610000  0.58360000  1.0
  C  C204  1  0.03660000  0.78670000  0.58470000  1.0
  C  C205  1  0.03240000  0.34080000  0.43880000  1.0
  C  C206  1  0.43010000  0.46370000  0.40370000  1.0
  C  C207  1  0.05700000  0.60440000  0.04970000  1.0
  C  C208  1  0.03660000  0.28670000  0.91530000  1.0
  C  C209  1  0.56990000  0.53630000  0.59630000  1.0
  C  C210  1  0.63210000  0.00660000  0.80380000  1.0
  C  C211  1  0.71030000  0.61400000  0.39550000  1.0
  C  C212  1  0.00820000  0.54630000  0.66050000  1.0
  C  C213  1  0.80850000  0.50950000  0.37740000  1.0
  C  C214  1  0.92660000  0.98380000  0.20260000  1.0
  C  C215  1  0.48570000  0.14210000  0.93490000  1.0
  C  C216  1  0.00820000  0.04630000  0.83950000  1.0
  C  C217  1  0.08300000  0.65690000  0.42200000  1.0
  C  C218  1  0.44090000  0.46200000  0.34040000  1.0
  C  C219  1  0.89300000  0.63220000  0.88890000  1.0
  C  C220  1  0.87570000  0.18200000  0.96390000  1.0
  C  C221  1  0.45520000  0.73170000  0.09580000  1.0
  C  C222  1  0.28360000  0.53470000  0.39360000  1.0
  C  C223  1  0.71130000  0.96790000  0.83030000  1.0
  C  C224  1  0.96340000  0.71330000  0.08470000  1.0
  C  C225  1  0.87570000  0.68200000  0.53610000  1.0
  C  C226  1  0.20790000  0.33380000  0.62610000  1.0
  C  C227  1  0.83280000  0.01030000  0.18430000  1.0
  C  C228  1  0.28870000  0.53210000  0.33030000  1.0
  C  C229  1  0.13030000  0.02250000  0.92050000  1.0
  C  C230  1  0.31450000  0.73240000  0.89500000  1.0
  C  C231  1  0.19150000  0.99050000  0.87740000  1.0
  C  C232  1  0.94030000  0.26950000  0.58530000  1.0
  C  C233  1  0.35280000  0.50010000  0.43050000  1.0
  C  C234  1  0.77920000  0.24230000  0.12590000  1.0
  C  C235  1  0.63210000  0.50660000  0.69620000  1.0
  C  C236  1  0.94780000  0.31220000  0.94310000  1.0
  C  C237  1  0.37640000  0.98900000  0.26590000  1.0
  C  C238  1  0.86970000  0.97750000  0.07950000  1.0
  C  C239  1  0.80850000  0.00950000  0.12260000  1.0
  C  C240  1  0.54480000  0.26830000  0.90420000  1.0
  C  C241  1  0.37960000  0.24070000  0.95510000  1.0
  C  C242  1  0.83280000  0.51030000  0.31570000  1.0
  C  C243  1  0.05970000  0.73050000  0.41470000  1.0
  C  C244  1  0.39240000  0.66510000  0.54240000  1.0
  C  C245  1  0.56280000  0.69360000  0.59150000  1.0
  C  C246  1  0.16720000  0.48970000  0.68430000  1.0
  C  C247  1  0.03870000  0.55060000  0.60010000  1.0
  C  C248  1  0.37640000  0.48900000  0.23410000  1.0
  C  C249  1  0.92660000  0.48380000  0.29740000  1.0
  C  C250  1  0.28870000  0.03210000  0.16970000  1.0
  C  C251  1  0.96760000  0.15920000  0.93880000  1.0
  C  C252  1  0.89300000  0.13220000  0.61110000  1.0
  C  C253  1  0.19150000  0.49050000  0.62260000  1.0
  C  C254  1  0.96340000  0.21330000  0.41530000  1.0
  C  C255  1  0.45340000  0.79290000  0.57270000  1.0
  C  C256  1  0.94780000  0.81220000  0.55690000  1.0
  C  C257  1  0.03820000  0.01220000  0.73180000  1.0
  C  C258  1  0.03240000  0.84080000  0.06120000  1.0
  C  C259  1  0.99180000  0.45370000  0.33950000  1.0
  C  C260  1  0.94300000  0.89560000  0.54970000  1.0
  C  C261  1  0.54660000  0.70710000  0.07270000  1.0
  C  C262  1  0.51430000  0.85790000  0.06510000  1.0
  C  C263  1  0.96130000  0.94940000  0.10010000  1.0
  C  C264  1  0.13370000  0.24130000  0.46690000  1.0
  C  C265  1  0.26330000  0.69580000  0.38850000  1.0
  C  C266  1  0.10700000  0.36780000  0.11110000  1.0
  C  C267  1  0.12430000  0.31800000  0.46390000  1.0
  C  C268  1  0.10700000  0.86780000  0.38890000  1.0
  C  C269  1  0.07340000  0.51620000  0.70260000  1.0
  C  C270  1  0.13840000  0.78840000  0.39500000  1.0
  C  C271  1  0.04840000  0.71060000  0.58600000  1.0
  C  C272  1  0.60350000  0.21390000  0.08360000  1.0
  C  C273  1  0.43720000  0.80640000  0.09150000  1.0
  C  C274  1  0.94300000  0.39560000  0.95030000  1.0
  C  C275  1  0.86160000  0.21160000  0.60500000  1.0
  O  O276  1  0.49790000  0.08230000  0.39160000  1.0
  O  O277  1  0.75900000  0.89700000  0.38740000  1.0
  O  O278  1  0.91090000  0.91830000  0.49900000  1.0
  O  O279  1  0.02620000  0.41830000  0.44340000  1.0
  O  O280  1  0.41660000  0.12990000  0.60220000  1.0
  O  O281  1  0.97380000  0.08170000  0.94340000  1.0
  O  O282  1  0.08910000  0.58170000  0.99900000  1.0
  O  O283  1  0.79790000  0.93300000  0.92290000  1.0
  O  O284  1  0.20210000  0.06700000  0.07710000  1.0
  O  O285  1  0.10830000  0.50920000  0.80910000  1.0
  O  O286  1  0.44880000  0.45310000  0.21310000  1.0
  O  O287  1  0.55120000  0.04690000  0.71310000  1.0
  O  O288  1  0.27920000  0.57750000  0.07600000  1.0
  O  O289  1  0.93990000  0.51270000  0.77828000  1.0
  O  O290  1  0.06010000  0.98730000  0.27828000  1.0
  O  O291  1  0.08910000  0.08170000  0.50100000  1.0
  O  O292  1  0.89170000  0.99080000  0.30910000  1.0
  O  O293  1  0.89170000  0.49080000  0.19090000  1.0
  O  O294  1  0.91090000  0.41830000  0.00100000  1.0
  O  O295  1  0.63590000  0.60210000  0.04760000  1.0
  O  O296  1  0.71440000  0.53640000  0.39940000  1.0
  O  O297  1  0.81740000  0.57750000  0.88730000  1.0
  O  O298  1  0.96510000  0.43930000  0.90480000  1.0
  O  O299  1  0.49830000  0.56610000  0.55839000  1.0
  O  O300  1  0.81700000  0.04080000  0.45920000  1.0
  O  O301  1  0.28560000  0.96360000  0.89940000  1.0
  O  O302  1  0.99070000  0.12600000  0.61400000  1.0
  O  O303  1  0.00930000  0.37400000  0.11400000  1.0
  O  O304  1  0.72080000  0.42250000  0.92400000  1.0
  O  O305  1  0.03490000  0.56070000  0.09520000  1.0
  O  O306  1  0.99070000  0.62600000  0.88600000  1.0
  O  O307  1  0.50210000  0.41770000  0.89160000  1.0
  O  O308  1  0.68620000  0.97840000  0.70290000  1.0
  O  O309  1  0.58340000  0.37010000  0.10220000  1.0
  O  O310  1  0.18260000  0.92250000  0.38730000  1.0
  O  O311  1  0.24100000  0.10300000  0.61260000  1.0
  O  O312  1  0.71440000  0.03640000  0.10060000  1.0
  O  O313  1  0.55120000  0.54690000  0.78690000  1.0
  O  O314  1  0.06010000  0.48730000  0.22172000  1.0
  O  O315  1  0.31380000  0.02160000  0.29710000  1.0
  O  O316  1  0.36410000  0.39790000  0.95240000  1.0
  O  O317  1  0.58340000  0.87010000  0.39780000  1.0
  O  O318  1  0.50170000  0.43390000  0.44161000  1.0
  O  O319  1  0.10830000  0.00920000  0.69090000  1.0
  O  O320  1  0.49830000  0.06610000  0.94161000  1.0
  O  O321  1  0.18260000  0.42250000  0.11270000  1.0
  O  O322  1  0.02620000  0.91830000  0.05660000  1.0
  O  O323  1  0.27920000  0.07750000  0.42400000  1.0
  O  O324  1  0.31380000  0.52160000  0.20290000  1.0
  O  O325  1  0.49790000  0.58230000  0.10840000  1.0
  O  O326  1  0.50170000  0.93390000  0.05839000  1.0
  O  O327  1  0.24100000  0.60300000  0.88740000  1.0
  O  O328  1  0.41660000  0.62990000  0.89780000  1.0
  O  O329  1  0.72080000  0.92250000  0.57600000  1.0
  O  O330  1  0.81740000  0.07750000  0.61270000  1.0
  O  O331  1  0.75900000  0.39700000  0.11260000  1.0
  O  O332  1  0.18300000  0.45920000  0.95920000  1.0
  O  O333  1  0.81700000  0.54080000  0.04080000  1.0
  O  O334  1  0.44880000  0.95310000  0.28690000  1.0
  O  O335  1  0.28560000  0.46360000  0.60060000  1.0
  O  O336  1  0.20210000  0.56700000  0.42290000  1.0
  O  O337  1  0.18300000  0.95920000  0.54080000  1.0
  O  O338  1  0.96510000  0.93930000  0.59520000  1.0
  O  O339  1  0.93990000  0.01270000  0.72172000  1.0
  O  O340  1  0.36410000  0.89790000  0.54760000  1.0
  O  O341  1  0.00930000  0.87400000  0.38600000  1.0
  O  O342  1  0.50210000  0.91770000  0.60840000  1.0
  O  O343  1  0.79790000  0.43300000  0.57710000  1.0
  O  O344  1  0.63590000  0.10210000  0.45240000  1.0
  O  O345  1  0.68620000  0.47840000  0.79710000  1.0
  O  O346  1  0.97380000  0.58170000  0.55660000  1.0
  O  O347  1  0.03490000  0.06070000  0.40480000  1.0
