# generated using pymatgen
data_Ce2H12C8SO18
_symmetry_space_group_name_H-M   'P 1'
_cell_length_a   21.96300000
_cell_length_b   7.65770000
_cell_length_c   6.16890000
_cell_angle_alpha   90.00000000
_cell_angle_beta   91.48000000
_cell_angle_gamma   90.00000000
_symmetry_Int_Tables_number   1
_chemical_formula_structural   Ce2H12C8SO18
_chemical_formula_sum   'Ce4 H24 C16 S2 O36'
_cell_volume   1037.17690093
_cell_formula_units_Z   2
loop_
 _symmetry_equiv_pos_site_id
 _symmetry_equiv_pos_as_xyz
  1  'x, y, z'
loop_
 _atom_site_type_symbol
 _atom_site_label
 _atom_site_symmetry_multiplicity
 _atom_site_fract_x
 _atom_site_fract_y
 _atom_site_fract_z
 _atom_site_occupancy
  Ce  Ce0  1  0.35468000  0.74659000  0.94994000  1.0
  Ce  Ce1  1  0.85468000  0.24659000  0.94994000  1.0
  Ce  Ce2  1  0.64532000  0.74659000  0.05006000  1.0
  Ce  Ce3  1  0.14532000  0.24659000  0.05006000  1.0
  H  H4  1  0.39380000  0.11290000  0.06130000  1.0
  H  H5  1  0.24510000  0.02420000  0.19860000  1.0
  H  H6  1  0.38320000  0.17890000  0.36750000  1.0
  H  H7  1  0.28820000  0.27020000  0.45510000  1.0
  H  H8  1  0.41620000  0.49150000  0.57580000  1.0
  H  H9  1  0.36670000  0.61300000  0.55800000  1.0
  H  H10  1  0.89380000  0.61290000  0.06130000  1.0
  H  H11  1  0.74510000  0.52420000  0.19860000  1.0
  H  H12  1  0.88320000  0.67890000  0.36750000  1.0
  H  H13  1  0.78820000  0.77020000  0.45510000  1.0
  H  H14  1  0.91620000  0.99150000  0.57580000  1.0
  H  H15  1  0.86670000  0.11300000  0.55800000  1.0
  H  H16  1  0.60620000  0.11290000  0.93870000  1.0
  H  H17  1  0.75490000  0.02420000  0.80140000  1.0
  H  H18  1  0.61680000  0.17890000  0.63250000  1.0
  H  H19  1  0.71180000  0.27020000  0.54490000  1.0
  H  H20  1  0.58380000  0.49150000  0.42420000  1.0
  H  H21  1  0.63330000  0.61300000  0.44200000  1.0
  H  H22  1  0.10620000  0.61290000  0.93870000  1.0
  H  H23  1  0.25490000  0.52420000  0.80140000  1.0
  H  H24  1  0.11680000  0.67890000  0.63250000  1.0
  H  H25  1  0.21180000  0.77020000  0.54490000  1.0
  H  H26  1  0.08380000  0.99150000  0.42420000  1.0
  H  H27  1  0.13330000  0.11300000  0.44200000  1.0
  C  C28  1  0.34440000  0.93920000  0.44530000  1.0
  C  C29  1  0.34960000  0.10740000  0.30930000  1.0
  C  C30  1  0.29030000  0.21230000  0.31380000  1.0
  C  C31  1  0.29290000  0.35430000  0.13720000  1.0
  C  C32  1  0.84440000  0.43920000  0.44530000  1.0
  C  C33  1  0.84960000  0.60740000  0.30930000  1.0
  C  C34  1  0.79030000  0.71230000  0.31380000  1.0
  C  C35  1  0.79290000  0.85430000  0.13720000  1.0
  C  C36  1  0.65560000  0.93920000  0.55470000  1.0
  C  C37  1  0.65040000  0.10740000  0.69070000  1.0
  C  C38  1  0.70970000  0.21230000  0.68620000  1.0
  C  C39  1  0.70710000  0.35430000  0.86280000  1.0
  C  C40  1  0.15560000  0.43920000  0.55470000  1.0
  C  C41  1  0.15040000  0.60740000  0.69070000  1.0
  C  C42  1  0.20970000  0.71230000  0.68620000  1.0
  C  C43  1  0.20710000  0.85430000  0.86280000  1.0
  S  S44  1  0.50000000  0.74510000  0.00000000  1.0
  S  S45  1  0.00000000  0.24510000  0.00000000  1.0
  O  O46  1  0.45610000  0.63830000  0.11420000  1.0
  O  O47  1  0.46270000  0.85580000  0.85140000  1.0
  O  O48  1  0.34400000  0.79890000  0.34450000  1.0
  O  O49  1  0.34090000  0.95550000  0.64660000  1.0
  O  O50  1  0.36230000  0.05590000  0.09720000  1.0
  O  O51  1  0.23679000  0.10920000  0.28250000  1.0
  O  O52  1  0.33530000  0.46180000  0.13920000  1.0
  O  O53  1  0.24990000  0.35450000  0.99560000  1.0
  O  O54  1  0.38850000  0.54780000  0.64310000  1.0
  O  O55  1  0.95610000  0.13830000  0.11420000  1.0
  O  O56  1  0.96270000  0.35580000  0.85140000  1.0
  O  O57  1  0.84400000  0.29890000  0.34450000  1.0
  O  O58  1  0.84090000  0.45550000  0.64660000  1.0
  O  O59  1  0.86230000  0.55590000  0.09720000  1.0
  O  O60  1  0.73679000  0.60920000  0.28250000  1.0
  O  O61  1  0.83530000  0.96180000  0.13920000  1.0
  O  O62  1  0.74990000  0.85450000  0.99560000  1.0
  O  O63  1  0.88850000  0.04780000  0.64310000  1.0
  O  O64  1  0.54390000  0.63830000  0.88580000  1.0
  O  O65  1  0.53730000  0.85580000  0.14860000  1.0
  O  O66  1  0.65600000  0.79890000  0.65550000  1.0
  O  O67  1  0.65910000  0.95550000  0.35340000  1.0
  O  O68  1  0.63770000  0.05590000  0.90280000  1.0
  O  O69  1  0.76321000  0.10920000  0.71750000  1.0
  O  O70  1  0.66470000  0.46180000  0.86080000  1.0
  O  O71  1  0.75010000  0.35450000  0.00440000  1.0
  O  O72  1  0.61150000  0.54780000  0.35690000  1.0
  O  O73  1  0.04390000  0.13830000  0.88580000  1.0
  O  O74  1  0.03730000  0.35580000  0.14860000  1.0
  O  O75  1  0.15600000  0.29890000  0.65550000  1.0
  O  O76  1  0.15910000  0.45550000  0.35340000  1.0
  O  O77  1  0.13770000  0.55590000  0.90280000  1.0
  O  O78  1  0.26321000  0.60920000  0.71750000  1.0
  O  O79  1  0.16470000  0.96180000  0.86080000  1.0
  O  O80  1  0.25010000  0.85450000  0.00440000  1.0
  O  O81  1  0.11150000  0.04780000  0.35690000  1.0
