# generated using pymatgen
data_NdH12(C5O2)3
_symmetry_space_group_name_H-M   'P 1'
_cell_length_a   10.16180000
_cell_length_b   21.97470000
_cell_length_c   14.11400000
_cell_angle_alpha   91.53300000
_cell_angle_beta   90.00000000
_cell_angle_gamma   90.00000000
_symmetry_Int_Tables_number   1
_chemical_formula_structural   NdH12(C5O2)3
_chemical_formula_sum   'Nd8 H96 C120 O48'
_cell_volume   3150.56353007
_cell_formula_units_Z   8
loop_
 _symmetry_equiv_pos_site_id
 _symmetry_equiv_pos_as_xyz
  1  'x, y, z'
loop_
 _atom_site_type_symbol
 _atom_site_label
 _atom_site_symmetry_multiplicity
 _atom_site_fract_x
 _atom_site_fract_y
 _atom_site_fract_z
 _atom_site_occupancy
  Nd  Nd0  1  0.55949000  0.74056000  0.23235000  1.0
  Nd  Nd1  1  0.74962000  0.75072000  0.97447000  1.0
  Nd  Nd2  1  0.05949000  0.25944000  0.26765000  1.0
  Nd  Nd3  1  0.24962000  0.24928000  0.52553000  1.0
  Nd  Nd4  1  0.44051000  0.25944000  0.76765000  1.0
  Nd  Nd5  1  0.25038000  0.24928000  0.02553000  1.0
  Nd  Nd6  1  0.94051000  0.74056000  0.73235000  1.0
  Nd  Nd7  1  0.75038000  0.75072000  0.47447000  1.0
  H  H8  1  0.87750000  0.65910000  0.27720000  1.0
  H  H9  1  0.01210000  0.68540000  0.24170000  1.0
  H  H10  1  0.79670000  0.56110000  0.18810000  1.0
  H  H11  1  0.85820000  0.46590000  0.13240000  1.0
  H  H12  1  0.23230000  0.51870000  0.12860000  1.0
  H  H13  1  0.17330000  0.61420000  0.18350000  1.0
  H  H14  1  0.03820000  0.41130000  0.02930000  1.0
  H  H15  1  0.18290000  0.42410000  0.06170000  1.0
  H  H16  1  0.68410000  0.91550000  0.05330000  1.0
  H  H17  1  0.54180000  0.90530000  0.01390000  1.0
  H  H18  1  0.72640000  0.00710000  0.13530000  1.0
  H  H19  1  0.66040000  0.09720000  0.20840000  1.0
  H  H20  1  0.28770000  0.04350000  0.18880000  1.0
  H  H21  1  0.35320000  0.95360000  0.11600000  1.0
  H  H22  1  0.35400000  0.12960000  0.30140000  1.0
  H  H23  1  0.49410000  0.15790000  0.28740000  1.0
  H  H24  1  0.30040000  0.62200000  0.01380000  1.0
  H  H25  1  0.36370000  0.62650000  0.91270000  1.0
  H  H26  1  0.49160000  0.56720000  0.12820000  1.0
  H  H27  1  0.41920000  0.52780000  0.85460000  1.0
  H  H28  1  0.41230000  0.88440000  0.35370000  1.0
  H  H29  1  0.34850000  0.86740000  0.45060000  1.0
  H  H30  1  0.53510000  0.97760000  0.34110000  1.0
  H  H31  1  0.40410000  0.92900000  0.59490000  1.0
  H  H32  1  0.37750000  0.34090000  0.22280000  1.0
  H  H33  1  0.51210000  0.31460000  0.25830000  1.0
  H  H34  1  0.29670000  0.43890000  0.31190000  1.0
  H  H35  1  0.35820000  0.53410000  0.36760000  1.0
  H  H36  1  0.73230000  0.48130000  0.37140000  1.0
  H  H37  1  0.67330000  0.38580000  0.31650000  1.0
  H  H38  1  0.53820000  0.58870000  0.47070000  1.0
  H  H39  1  0.68290000  0.57590000  0.43830000  1.0
  H  H40  1  0.18410000  0.08450000  0.44670000  1.0
  H  H41  1  0.04180000  0.09470000  0.48610000  1.0
  H  H42  1  0.22640000  0.99290000  0.36470000  1.0
  H  H43  1  0.16040000  0.90280000  0.29160000  1.0
  H  H44  1  0.78770000  0.95650000  0.31120000  1.0
  H  H45  1  0.85320000  0.04640000  0.38400000  1.0
  H  H46  1  0.85400000  0.87040000  0.19860000  1.0
  H  H47  1  0.99410000  0.84210000  0.21260000  1.0
  H  H48  1  0.80040000  0.37800000  0.48620000  1.0
  H  H49  1  0.86370000  0.37350000  0.58730000  1.0
  H  H50  1  0.99160000  0.43280000  0.37180000  1.0
  H  H51  1  0.91920000  0.47220000  0.64540000  1.0
  H  H52  1  0.91230000  0.11560000  0.14630000  1.0
  H  H53  1  0.84850000  0.13260000  0.04940000  1.0
  H  H54  1  0.03510000  0.02240000  0.15890000  1.0
  H  H55  1  0.90410000  0.07100000  0.90510000  1.0
  H  H56  1  0.12250000  0.34090000  0.72280000  1.0
  H  H57  1  0.98790000  0.31460000  0.75830000  1.0
  H  H58  1  0.20330000  0.43890000  0.81190000  1.0
  H  H59  1  0.14180000  0.53410000  0.86760000  1.0
  H  H60  1  0.76770000  0.48130000  0.87140000  1.0
  H  H61  1  0.82670000  0.38580000  0.81650000  1.0
  H  H62  1  0.96180000  0.58870000  0.97070000  1.0
  H  H63  1  0.81710000  0.57590000  0.93830000  1.0
  H  H64  1  0.31590000  0.08450000  0.94670000  1.0
  H  H65  1  0.45820000  0.09470000  0.98610000  1.0
  H  H66  1  0.27360000  0.99290000  0.86470000  1.0
  H  H67  1  0.33960000  0.90280000  0.79160000  1.0
  H  H68  1  0.71230000  0.95650000  0.81120000  1.0
  H  H69  1  0.64680000  0.04640000  0.88400000  1.0
  H  H70  1  0.64600000  0.87040000  0.69860000  1.0
  H  H71  1  0.50590000  0.84210000  0.71260000  1.0
  H  H72  1  0.69960000  0.37800000  0.98620000  1.0
  H  H73  1  0.63630000  0.37350000  0.08730000  1.0
  H  H74  1  0.50840000  0.43280000  0.87180000  1.0
  H  H75  1  0.58080000  0.47220000  0.14540000  1.0
  H  H76  1  0.58770000  0.11560000  0.64630000  1.0
  H  H77  1  0.65150000  0.13260000  0.54940000  1.0
  H  H78  1  0.46490000  0.02240000  0.65890000  1.0
  H  H79  1  0.59590000  0.07100000  0.40510000  1.0
  H  H80  1  0.62250000  0.65910000  0.77720000  1.0
  H  H81  1  0.48790000  0.68540000  0.74170000  1.0
  H  H82  1  0.70330000  0.56110000  0.68810000  1.0
  H  H83  1  0.64180000  0.46590000  0.63240000  1.0
  H  H84  1  0.26770000  0.51870000  0.62860000  1.0
  H  H85  1  0.32670000  0.61420000  0.68350000  1.0
  H  H86  1  0.46180000  0.41130000  0.52930000  1.0
  H  H87  1  0.31710000  0.42410000  0.56170000  1.0
  H  H88  1  0.81590000  0.91550000  0.55330000  1.0
  H  H89  1  0.95820000  0.90530000  0.51390000  1.0
  H  H90  1  0.77360000  0.00710000  0.63530000  1.0
  H  H91  1  0.83960000  0.09720000  0.70840000  1.0
  H  H92  1  0.21230000  0.04350000  0.68880000  1.0
  H  H93  1  0.14680000  0.95360000  0.61600000  1.0
  H  H94  1  0.14600000  0.12960000  0.80140000  1.0
  H  H95  1  0.00590000  0.15790000  0.78740000  1.0
  H  H96  1  0.19960000  0.62200000  0.51380000  1.0
  H  H97  1  0.13630000  0.62650000  0.41270000  1.0
  H  H98  1  0.00840000  0.56720000  0.62820000  1.0
  H  H99  1  0.08080000  0.52780000  0.35460000  1.0
  H  H100  1  0.08770000  0.88440000  0.85370000  1.0
  H  H101  1  0.15150000  0.86740000  0.95060000  1.0
  H  H102  1  0.96490000  0.97760000  0.84110000  1.0
  H  H103  1  0.09590000  0.92900000  0.09490000  1.0
  C  C104  1  0.86510000  0.69246000  0.14340000  1.0
  C  C105  1  0.93540000  0.66173000  0.22290000  1.0
  C  C106  1  0.97730000  0.59859000  0.19030000  1.0
  C  C107  1  0.88490000  0.55307000  0.17560000  1.0
  C  C108  1  0.92190000  0.49573000  0.14230000  1.0
  C  C109  1  0.05150000  0.48243000  0.12400000  1.0
  C  C110  1  0.14410000  0.52727000  0.14010000  1.0
  C  C111  1  0.10890000  0.58472000  0.17290000  1.0
  C  C112  1  0.09290000  0.42099000  0.08390000  1.0
  C  C113  1  0.08510000  0.36881000  0.15070000  1.0
  C  C114  1  0.57980000  0.85447000  0.12940000  1.0
  C  C115  1  0.59260000  0.91119000  0.07160000  1.0
  C  C116  1  0.54890000  0.97006000  0.11950000  1.0
  C  C117  1  0.63730000  0.01379000  0.14650000  1.0
  C  C118  1  0.59770000  0.06825000  0.19040000  1.0
  C  C119  1  0.46690000  0.07958000  0.20720000  1.0
  C  C120  1  0.37690000  0.03626000  0.17860000  1.0
  C  C121  1  0.41610000  0.98212000  0.13510000  1.0
  C  C122  1  0.42060000  0.13861000  0.25460000  1.0
  C  C123  1  0.36480000  0.18198000  0.18470000  1.0
  C  C124  1  0.47360000  0.67021000  0.01600000  1.0
  C  C125  1  0.38280000  0.62019000  0.97910000  1.0
  C  C126  1  0.44480000  0.55803000  0.98990000  1.0
  C  C127  1  0.49460000  0.54021000  0.07630000  1.0
  C  C128  1  0.45150000  0.51674000  0.91340000  1.0
  C  C129  1  0.53510000  0.83515000  0.43570000  1.0
  C  C130  1  0.42890000  0.88133000  0.42110000  1.0
  C  C131  1  0.46330000  0.94325000  0.46140000  1.0
  C  C132  1  0.52070000  0.98633000  0.40520000  1.0
  C  C133  1  0.44290000  0.95753000  0.55630000  1.0
  C  C134  1  0.36510000  0.30754000  0.35660000  1.0
  C  C135  1  0.43540000  0.33827000  0.27710000  1.0
  C  C136  1  0.47730000  0.40141000  0.30970000  1.0
  C  C137  1  0.38490000  0.44693000  0.32440000  1.0
  C  C138  1  0.42190000  0.50427000  0.35770000  1.0
  C  C139  1  0.55150000  0.51757000  0.37600000  1.0
  C  C140  1  0.64410000  0.47273000  0.35990000  1.0
  C  C141  1  0.60890000  0.41528000  0.32710000  1.0
  C  C142  1  0.59290000  0.57901000  0.41610000  1.0
  C  C143  1  0.58510000  0.63119000  0.34930000  1.0
  C  C144  1  0.07980000  0.14553000  0.37060000  1.0
  C  C145  1  0.09260000  0.08881000  0.42840000  1.0
  C  C146  1  0.04890000  0.02994000  0.38050000  1.0
  C  C147  1  0.13730000  0.98621000  0.35350000  1.0
  C  C148  1  0.09770000  0.93175000  0.30960000  1.0
  C  C149  1  0.96690000  0.92042000  0.29280000  1.0
  C  C150  1  0.87690000  0.96374000  0.32140000  1.0
  C  C151  1  0.91610000  0.01788000  0.36490000  1.0
  C  C152  1  0.92060000  0.86139000  0.24540000  1.0
  C  C153  1  0.86480000  0.81802000  0.31530000  1.0
  C  C154  1  0.97360000  0.32979000  0.48400000  1.0
  C  C155  1  0.88280000  0.37981000  0.52090000  1.0
  C  C156  1  0.94480000  0.44197000  0.51010000  1.0
  C  C157  1  0.99460000  0.45979000  0.42370000  1.0
  C  C158  1  0.95150000  0.48326000  0.58660000  1.0
  C  C159  1  0.03510000  0.16485000  0.06430000  1.0
  C  C160  1  0.92890000  0.11867000  0.07890000  1.0
  C  C161  1  0.96330000  0.05675000  0.03860000  1.0
  C  C162  1  0.02070000  0.01367000  0.09480000  1.0
  C  C163  1  0.94290000  0.04247000  0.94370000  1.0
  C  C164  1  0.13490000  0.30754000  0.85660000  1.0
  C  C165  1  0.06460000  0.33827000  0.77710000  1.0
  C  C166  1  0.02270000  0.40141000  0.80970000  1.0
  C  C167  1  0.11510000  0.44693000  0.82440000  1.0
  C  C168  1  0.07810000  0.50427000  0.85770000  1.0
  C  C169  1  0.94850000  0.51757000  0.87600000  1.0
  C  C170  1  0.85590000  0.47273000  0.85990000  1.0
  C  C171  1  0.89110000  0.41528000  0.82710000  1.0
  C  C172  1  0.90710000  0.57901000  0.91610000  1.0
  C  C173  1  0.91490000  0.63119000  0.84930000  1.0
  C  C174  1  0.42020000  0.14553000  0.87060000  1.0
  C  C175  1  0.40740000  0.08881000  0.92840000  1.0
  C  C176  1  0.45110000  0.02994000  0.88050000  1.0
  C  C177  1  0.36270000  0.98621000  0.85350000  1.0
  C  C178  1  0.40230000  0.93175000  0.80960000  1.0
  C  C179  1  0.53310000  0.92042000  0.79280000  1.0
  C  C180  1  0.62310000  0.96374000  0.82140000  1.0
  C  C181  1  0.58390000  0.01788000  0.86490000  1.0
  C  C182  1  0.57940000  0.86139000  0.74540000  1.0
  C  C183  1  0.63520000  0.81802000  0.81530000  1.0
  C  C184  1  0.52640000  0.32979000  0.98400000  1.0
  C  C185  1  0.61720000  0.37981000  0.02090000  1.0
  C  C186  1  0.55520000  0.44197000  0.01010000  1.0
  C  C187  1  0.50540000  0.45979000  0.92370000  1.0
  C  C188  1  0.54850000  0.48326000  0.08660000  1.0
  C  C189  1  0.46490000  0.16485000  0.56430000  1.0
  C  C190  1  0.57110000  0.11867000  0.57890000  1.0
  C  C191  1  0.53670000  0.05675000  0.53860000  1.0
  C  C192  1  0.47930000  0.01367000  0.59480000  1.0
  C  C193  1  0.55710000  0.04247000  0.44370000  1.0
  C  C194  1  0.63490000  0.69246000  0.64340000  1.0
  C  C195  1  0.56460000  0.66173000  0.72290000  1.0
  C  C196  1  0.52270000  0.59859000  0.69030000  1.0
  C  C197  1  0.61510000  0.55307000  0.67560000  1.0
  C  C198  1  0.57810000  0.49573000  0.64230000  1.0
  C  C199  1  0.44850000  0.48243000  0.62400000  1.0
  C  C200  1  0.35590000  0.52727000  0.64010000  1.0
  C  C201  1  0.39110000  0.58472000  0.67290000  1.0
  C  C202  1  0.40710000  0.42099000  0.58390000  1.0
  C  C203  1  0.41490000  0.36881000  0.65070000  1.0
  C  C204  1  0.92020000  0.85447000  0.62940000  1.0
  C  C205  1  0.90740000  0.91119000  0.57160000  1.0
  C  C206  1  0.95110000  0.97006000  0.61950000  1.0
  C  C207  1  0.86270000  0.01379000  0.64650000  1.0
  C  C208  1  0.90230000  0.06825000  0.69040000  1.0
  C  C209  1  0.03310000  0.07958000  0.70720000  1.0
  C  C210  1  0.12310000  0.03626000  0.67860000  1.0
  C  C211  1  0.08390000  0.98212000  0.63510000  1.0
  C  C212  1  0.07940000  0.13861000  0.75460000  1.0
  C  C213  1  0.13520000  0.18198000  0.68470000  1.0
  C  C214  1  0.02640000  0.67021000  0.51600000  1.0
  C  C215  1  0.11720000  0.62019000  0.47910000  1.0
  C  C216  1  0.05520000  0.55803000  0.48990000  1.0
  C  C217  1  0.00540000  0.54021000  0.57630000  1.0
  C  C218  1  0.04850000  0.51674000  0.41340000  1.0
  C  C219  1  0.96490000  0.83515000  0.93570000  1.0
  C  C220  1  0.07110000  0.88133000  0.92110000  1.0
  C  C221  1  0.03670000  0.94325000  0.96140000  1.0
  C  C222  1  0.97930000  0.98633000  0.90520000  1.0
  C  C223  1  0.05710000  0.95753000  0.05630000  1.0
  O  O224  1  0.74070000  0.69198000  0.13836000  1.0
  O  O225  1  0.93040000  0.71676000  0.07925000  1.0
  O  O226  1  0.16330000  0.32461000  0.13516000  1.0
  O  O227  1  0.00690000  0.36709000  0.21723000  1.0
  O  O228  1  0.63300000  0.80544000  0.09773000  1.0
  O  O229  1  0.51980000  0.85354000  0.20504000  1.0
  O  O230  1  0.26590000  0.21452000  0.20486000  1.0
  O  O231  1  0.41980000  0.18703000  0.10573000  1.0
  O  O232  1  0.56700000  0.68458000  0.96458000  1.0
  O  O233  1  0.45050000  0.69366000  0.09604000  1.0
  O  O234  1  0.63090000  0.84676000  0.48784000  1.0
  O  O235  1  0.52650000  0.78297000  0.39340000  1.0
  O  O236  1  0.24070000  0.30802000  0.36164000  1.0
  O  O237  1  0.43040000  0.28324000  0.42075000  1.0
  O  O238  1  0.66330000  0.67539000  0.36484000  1.0
  O  O239  1  0.50690000  0.63291000  0.28277000  1.0
  O  O240  1  0.13300000  0.19456000  0.40227000  1.0
  O  O241  1  0.01980000  0.14646000  0.29496000  1.0
  O  O242  1  0.76590000  0.78548000  0.29514000  1.0
  O  O243  1  0.91980000  0.81297000  0.39427000  1.0
  O  O244  1  0.06700000  0.31542000  0.53542000  1.0
  O  O245  1  0.95050000  0.30634000  0.40396000  1.0
  O  O246  1  0.13090000  0.15324000  0.01216000  1.0
  O  O247  1  0.02650000  0.21703000  0.10660000  1.0
  O  O248  1  0.25930000  0.30802000  0.86164000  1.0
  O  O249  1  0.06960000  0.28324000  0.92075000  1.0
  O  O250  1  0.83670000  0.67539000  0.86484000  1.0
  O  O251  1  0.99310000  0.63291000  0.78277000  1.0
  O  O252  1  0.36700000  0.19456000  0.90227000  1.0
  O  O253  1  0.48020000  0.14646000  0.79496000  1.0
  O  O254  1  0.73410000  0.78548000  0.79514000  1.0
  O  O255  1  0.58020000  0.81297000  0.89427000  1.0
  O  O256  1  0.43300000  0.31542000  0.03542000  1.0
  O  O257  1  0.54950000  0.30634000  0.90396000  1.0
  O  O258  1  0.36910000  0.15324000  0.51216000  1.0
  O  O259  1  0.47350000  0.21703000  0.60660000  1.0
  O  O260  1  0.75930000  0.69198000  0.63836000  1.0
  O  O261  1  0.56960000  0.71676000  0.57925000  1.0
  O  O262  1  0.33670000  0.32461000  0.63516000  1.0
  O  O263  1  0.49310000  0.36709000  0.71723000  1.0
  O  O264  1  0.86700000  0.80544000  0.59773000  1.0
  O  O265  1  0.98020000  0.85354000  0.70504000  1.0
  O  O266  1  0.23410000  0.21452000  0.70486000  1.0
  O  O267  1  0.08020000  0.18703000  0.60573000  1.0
  O  O268  1  0.93300000  0.68458000  0.46458000  1.0
  O  O269  1  0.04950000  0.69366000  0.59604000  1.0
  O  O270  1  0.86910000  0.84676000  0.98784000  1.0
  O  O271  1  0.97350000  0.78297000  0.89340000  1.0
