# generated using pymatgen
data_MnH2(CO2)2
_symmetry_space_group_name_H-M   'P 1'
_cell_length_a   10.19560000
_cell_length_b   11.83410000
_cell_length_c   14.87380000
_cell_angle_alpha   90.98140000
_cell_angle_beta   90.00000000
_cell_angle_gamma   90.00000000
_symmetry_Int_Tables_number   1
_chemical_formula_structural   MnH2(CO2)2
_chemical_formula_sum   'Mn12 H24 C24 O48'
_cell_volume   1794.34623902
_cell_formula_units_Z   12
loop_
 _symmetry_equiv_pos_site_id
 _symmetry_equiv_pos_as_xyz
  1  'x, y, z'
loop_
 _atom_site_type_symbol
 _atom_site_label
 _atom_site_symmetry_multiplicity
 _atom_site_fract_x
 _atom_site_fract_y
 _atom_site_fract_z
 _atom_site_occupancy
  Mn  Mn0  1  0.91697000  0.75390000  0.13012000  1.0
  Mn  Mn1  1  0.10455000  0.73719000  0.31418000  1.0
  Mn  Mn2  1  0.41697000  0.74610000  0.36988000  1.0
  Mn  Mn3  1  0.60455000  0.76281000  0.18582000  1.0
  Mn  Mn4  1  0.08303000  0.24610000  0.86988000  1.0
  Mn  Mn5  1  0.89545000  0.26281000  0.68582000  1.0
  Mn  Mn6  1  0.58303000  0.25390000  0.63012000  1.0
  Mn  Mn7  1  0.39545000  0.23719000  0.81418000  1.0
  Mn  Mn8  1  0.00000000  0.50000000  0.00000000  1.0
  Mn  Mn9  1  0.50000000  0.00000000  0.50000000  1.0
  Mn  Mn10  1  0.00000000  0.00000000  0.00000000  1.0
  Mn  Mn11  1  0.50000000  0.50000000  0.50000000  1.0
  H  H12  1  0.74300000  0.83800000  0.37800000  1.0
  H  H13  1  0.04100000  0.47800000  0.27100000  1.0
  H  H14  1  0.61400000  0.55900000  0.04800000  1.0
  H  H15  1  0.22100000  0.95200000  0.22900000  1.0
  H  H16  1  0.14900000  0.69700000  0.91300000  1.0
  H  H17  1  0.71700000  0.02000000  0.02800000  1.0
  H  H18  1  0.24300000  0.66200000  0.12200000  1.0
  H  H19  1  0.54100000  0.02200000  0.22900000  1.0
  H  H20  1  0.11400000  0.94100000  0.45200000  1.0
  H  H21  1  0.72100000  0.54800000  0.27100000  1.0
  H  H22  1  0.64900000  0.80300000  0.58700000  1.0
  H  H23  1  0.21700000  0.48000000  0.47200000  1.0
  H  H24  1  0.25700000  0.16200000  0.62200000  1.0
  H  H25  1  0.95900000  0.52200000  0.72900000  1.0
  H  H26  1  0.38600000  0.44100000  0.95200000  1.0
  H  H27  1  0.77900000  0.04800000  0.77100000  1.0
  H  H28  1  0.85100000  0.30300000  0.08700000  1.0
  H  H29  1  0.28300000  0.98000000  0.97200000  1.0
  H  H30  1  0.75700000  0.33800000  0.87800000  1.0
  H  H31  1  0.45900000  0.97800000  0.77100000  1.0
  H  H32  1  0.88600000  0.05900000  0.54800000  1.0
  H  H33  1  0.27900000  0.45200000  0.72900000  1.0
  H  H34  1  0.35100000  0.19700000  0.41300000  1.0
  H  H35  1  0.78300000  0.52000000  0.52800000  1.0
  C  C36  1  0.82210000  0.81930000  0.33160000  1.0
  C  C37  1  0.01720000  0.52070000  0.21010000  1.0
  C  C38  1  0.70990000  0.57620000  0.05090000  1.0
  C  C39  1  0.14180000  0.93870000  0.18180000  1.0
  C  C40  1  0.09100000  0.74290000  0.96320000  1.0
  C  C41  1  0.72620000  0.94170000  0.06170000  1.0
  C  C42  1  0.32210000  0.68070000  0.16840000  1.0
  C  C43  1  0.51720000  0.97930000  0.28990000  1.0
  C  C44  1  0.20990000  0.92380000  0.44910000  1.0
  C  C45  1  0.64180000  0.56130000  0.31820000  1.0
  C  C46  1  0.59100000  0.75710000  0.53680000  1.0
  C  C47  1  0.22620000  0.55830000  0.43830000  1.0
  C  C48  1  0.17790000  0.18070000  0.66840000  1.0
  C  C49  1  0.98280000  0.47930000  0.78990000  1.0
  C  C50  1  0.29010000  0.42380000  0.94910000  1.0
  C  C51  1  0.85820000  0.06130000  0.81820000  1.0
  C  C52  1  0.90900000  0.25710000  0.03680000  1.0
  C  C53  1  0.27380000  0.05830000  0.93830000  1.0
  C  C54  1  0.67790000  0.31930000  0.83160000  1.0
  C  C55  1  0.48280000  0.02070000  0.71010000  1.0
  C  C56  1  0.79010000  0.07620000  0.55090000  1.0
  C  C57  1  0.35820000  0.43870000  0.68180000  1.0
  C  C58  1  0.40900000  0.24290000  0.46320000  1.0
  C  C59  1  0.77380000  0.44170000  0.56170000  1.0
  O  O60  1  0.79680000  0.79830000  0.24910000  1.0
  O  O61  1  0.93100000  0.80740000  0.36840000  1.0
  O  O62  1  0.00690000  0.62800000  0.21710000  1.0
  O  O63  1  0.00330000  0.46460000  0.14090000  1.0
  O  O64  1  0.73810000  0.65620000  0.10660000  1.0
  O  O65  1  0.78930000  0.51850000  0.00780000  1.0
  O  O66  1  0.07670000  0.85020000  0.19560000  1.0
  O  O67  1  0.12330000  0.00610000  0.11990000  1.0
  O  O68  1  0.02470000  0.68470000  0.01950000  1.0
  O  O69  1  0.09660000  0.84670000  0.96220000  1.0
  O  O70  1  0.84360000  0.90420000  0.06540000  1.0
  O  O71  1  0.62920000  0.90020000  0.09840000  1.0
  O  O72  1  0.29680000  0.70170000  0.25090000  1.0
  O  O73  1  0.43100000  0.69260000  0.13160000  1.0
  O  O74  1  0.50690000  0.87200000  0.28290000  1.0
  O  O75  1  0.50330000  0.03540000  0.35910000  1.0
  O  O76  1  0.23810000  0.84380000  0.39340000  1.0
  O  O77  1  0.28930000  0.98150000  0.49220000  1.0
  O  O78  1  0.57670000  0.64980000  0.30440000  1.0
  O  O79  1  0.62330000  0.49390000  0.38010000  1.0
  O  O80  1  0.52470000  0.81530000  0.48050000  1.0
  O  O81  1  0.59660000  0.65330000  0.53780000  1.0
  O  O82  1  0.34360000  0.59580000  0.43460000  1.0
  O  O83  1  0.12920000  0.59980000  0.40160000  1.0
  O  O84  1  0.20320000  0.20170000  0.75090000  1.0
  O  O85  1  0.06900000  0.19260000  0.63160000  1.0
  O  O86  1  0.99310000  0.37200000  0.78290000  1.0
  O  O87  1  0.99670000  0.53540000  0.85910000  1.0
  O  O88  1  0.26190000  0.34380000  0.89340000  1.0
  O  O89  1  0.21070000  0.48150000  0.99220000  1.0
  O  O90  1  0.92330000  0.14980000  0.80440000  1.0
  O  O91  1  0.87670000  0.99390000  0.88010000  1.0
  O  O92  1  0.97530000  0.31530000  0.98050000  1.0
  O  O93  1  0.90340000  0.15330000  0.03780000  1.0
  O  O94  1  0.15640000  0.09580000  0.93460000  1.0
  O  O95  1  0.37080000  0.09980000  0.90160000  1.0
  O  O96  1  0.70320000  0.29830000  0.74910000  1.0
  O  O97  1  0.56900000  0.30740000  0.86840000  1.0
  O  O98  1  0.49310000  0.12800000  0.71710000  1.0
  O  O99  1  0.49670000  0.96460000  0.64090000  1.0
  O  O100  1  0.76190000  0.15620000  0.60660000  1.0
  O  O101  1  0.71070000  0.01850000  0.50780000  1.0
  O  O102  1  0.42330000  0.35020000  0.69560000  1.0
  O  O103  1  0.37670000  0.50610000  0.61990000  1.0
  O  O104  1  0.47530000  0.18470000  0.51950000  1.0
  O  O105  1  0.40340000  0.34670000  0.46220000  1.0
  O  O106  1  0.65640000  0.40420000  0.56540000  1.0
  O  O107  1  0.87080000  0.40020000  0.59840000  1.0
