# generated using pymatgen
data_PrPH5C7NO5
_symmetry_space_group_name_H-M   'P 1'
_cell_length_a   10.15880000
_cell_length_b   12.79190000
_cell_length_c   23.00550000
_cell_angle_alpha   104.31600000
_cell_angle_beta   90.00000000
_cell_angle_gamma   113.39600000
_symmetry_Int_Tables_number   1
_chemical_formula_structural   PrPH5C7NO5
_chemical_formula_sum   'Pr8 P8 H40 C56 N8 O40'
_cell_volume   2642.31936572
_cell_formula_units_Z   8
loop_
 _symmetry_equiv_pos_site_id
 _symmetry_equiv_pos_as_xyz
  1  'x, y, z'
loop_
 _atom_site_type_symbol
 _atom_site_label
 _atom_site_symmetry_multiplicity
 _atom_site_fract_x
 _atom_site_fract_y
 _atom_site_fract_z
 _atom_site_occupancy
  Pr  Pr0  1  0.02275000  0.63658000  0.72564000  1.0
  Pr  Pr1  1  0.14588000  0.83450000  0.60034000  1.0
  Pr  Pr2  1  0.61590000  0.60958000  0.69696000  1.0
  Pr  Pr3  1  0.55884000  0.87196000  0.64042000  1.0
  Pr  Pr4  1  0.61383000  0.63658000  0.22564000  1.0
  Pr  Pr5  1  0.68862000  0.83450000  0.10034000  1.0
  Pr  Pr6  1  0.99368000  0.60958000  0.19696000  1.0
  Pr  Pr7  1  0.31312000  0.87196000  0.14042000  1.0
  P  P8  1  0.88240000  0.86020000  0.71376000  1.0
  P  P9  1  0.29130000  0.61600000  0.62056000  1.0
  P  P10  1  0.81670000  0.55520000  0.60114000  1.0
  P  P11  1  0.34060000  0.91060000  0.72913000  1.0
  P  P12  1  0.97780000  0.86020000  0.21376000  1.0
  P  P13  1  0.32470000  0.61600000  0.12056000  1.0
  P  P14  1  0.73850000  0.55520000  0.10114000  1.0
  P  P15  1  0.57000000  0.91060000  0.22913000  1.0
  H  H16  1  0.20020000  0.37320000  0.83670000  1.0
  H  H17  1  0.95410000  0.14820000  0.87140000  1.0
  H  H18  1  0.91500000  0.32980000  0.84800000  1.0
  H  H19  1  0.16250000  0.11840000  0.74200000  1.0
  H  H20  1  0.13720000  0.29820000  0.71290000  1.0
  H  H21  1  0.02000000  0.09320000  0.50290000  1.0
  H  H22  1  0.99270000  0.32740000  0.57680000  1.0
  H  H23  1  0.04520000  0.18260000  0.62660000  1.0
  H  H24  1  0.26340000  0.31940000  0.46720000  1.0
  H  H25  1  0.31140000  0.16060000  0.50740000  1.0
  H  H26  1  0.68290000  0.37960000  0.33240000  1.0
  H  H27  1  0.83620000  0.31420000  0.43290000  1.0
  H  H28  1  0.96990000  0.44140000  0.35970000  1.0
  H  H29  1  0.59880000  0.45360000  0.47050000  1.0
  H  H30  1  0.69830000  0.59440000  0.39830000  1.0
  H  H31  1  0.56210000  0.09080000  0.98780000  1.0
  H  H32  1  0.26480000  0.96360000  0.98120000  1.0
  H  H33  1  0.30830000  0.10580000  0.90670000  1.0
  H  H34  1  0.61500000  0.05080000  0.85280000  1.0
  H  H35  1  0.57310000  0.88200000  0.91790000  1.0
  H  H36  1  0.17300000  0.37320000  0.33670000  1.0
  H  H37  1  0.19410000  0.14820000  0.37140000  1.0
  H  H38  1  0.41480000  0.32980000  0.34800000  1.0
  H  H39  1  0.95590000  0.11840000  0.24200000  1.0
  H  H40  1  0.16100000  0.29820000  0.21290000  1.0
  H  H41  1  0.07320000  0.09320000  0.00290000  1.0
  H  H42  1  0.33470000  0.32740000  0.07680000  1.0
  H  H43  1  0.13740000  0.18260000  0.12660000  1.0
  H  H44  1  0.05600000  0.31940000  0.96720000  1.0
  H  H45  1  0.84920000  0.16060000  0.00740000  1.0
  H  H46  1  0.69670000  0.37960000  0.83240000  1.0
  H  H47  1  0.47800000  0.31420000  0.93290000  1.0
  H  H48  1  0.47150000  0.44140000  0.85970000  1.0
  H  H49  1  0.85480000  0.45360000  0.97050000  1.0
  H  H50  1  0.89610000  0.59440000  0.89830000  1.0
  H  H51  1  0.52870000  0.09080000  0.48780000  1.0
  H  H52  1  0.69880000  0.96360000  0.48120000  1.0
  H  H53  1  0.79750000  0.10580000  0.40670000  1.0
  H  H54  1  0.43580000  0.05080000  0.35280000  1.0
  H  H55  1  0.30890000  0.88200000  0.41790000  1.0
  C  C56  1  0.94860000  0.98580000  0.78240000  1.0
  C  C57  1  0.11890000  0.36060000  0.80890000  1.0
  C  C58  1  0.96460000  0.17400000  0.83650000  1.0
  C  C59  1  0.98080000  0.29760000  0.83490000  1.0
  C  C60  1  0.09910000  0.15400000  0.75330000  1.0
  C  C61  1  0.12230000  0.27620000  0.74880000  1.0
  C  C62  1  0.13810000  0.48100000  0.80180000  1.0
  C  C63  1  0.23750000  0.49900000  0.55010000  1.0
  C  C64  1  0.09790000  0.12240000  0.53570000  1.0
  C  C65  1  0.07090000  0.30680000  0.57620000  1.0
  C  C66  1  0.06550000  0.20040000  0.58990000  1.0
  C  C67  1  0.24680000  0.30080000  0.50390000  1.0
  C  C68  1  0.23860000  0.18760000  0.51390000  1.0
  C  C69  1  0.10310000  0.01460000  0.55500000  1.0
  C  C70  1  0.78590000  0.43000000  0.53340000  1.0
  C  C71  1  0.76460000  0.45600000  0.34930000  1.0
  C  C72  1  0.84310000  0.38720000  0.42950000  1.0
  C  C73  1  0.88280000  0.43060000  0.37570000  1.0
  C  C74  1  0.68650000  0.47840000  0.45440000  1.0
  C  C75  1  0.71230000  0.52780000  0.40040000  1.0
  C  C76  1  0.80760000  0.51680000  0.29740000  1.0
  C  C77  1  0.37700000  0.02680000  0.79940000  1.0
  C  C78  1  0.49600000  0.00700000  0.97590000  1.0
  C  C79  1  0.34320000  0.99580000  0.96060000  1.0
  C  C80  1  0.33710000  0.04520000  0.90620000  1.0
  C  C81  1  0.53620000  0.00580000  0.86960000  1.0
  C  C82  1  0.54460000  0.94380000  0.92100000  1.0
  C  C83  1  0.50220000  0.95160000  0.02860000  1.0
  C  C84  1  0.03720000  0.98580000  0.28240000  1.0
  C  C85  1  0.24170000  0.36060000  0.30890000  1.0
  C  C86  1  0.20940000  0.17400000  0.33650000  1.0
  C  C87  1  0.31680000  0.29760000  0.33490000  1.0
  C  C88  1  0.05490000  0.15400000  0.25330000  1.0
  C  C89  1  0.15390000  0.27620000  0.24880000  1.0
  C  C90  1  0.34290000  0.48100000  0.30180000  1.0
  C  C91  1  0.26150000  0.49900000  0.05010000  1.0
  C  C92  1  0.02450000  0.12240000  0.03570000  1.0
  C  C93  1  0.23590000  0.30680000  0.07620000  1.0
  C  C94  1  0.13490000  0.20040000  0.08990000  1.0
  C  C95  1  0.05400000  0.30080000  0.00390000  1.0
  C  C96  1  0.94900000  0.18760000  0.01390000  1.0
  C  C97  1  0.91150000  0.01460000  0.05500000  1.0
  C  C98  1  0.64410000  0.43000000  0.03340000  1.0
  C  C99  1  0.69140000  0.45600000  0.84930000  1.0
  C  C100  1  0.54410000  0.38720000  0.92950000  1.0
  C  C101  1  0.54780000  0.43060000  0.87570000  1.0
  C  C102  1  0.79190000  0.47840000  0.95440000  1.0
  C  C103  1  0.81550000  0.52780000  0.90040000  1.0
  C  C104  1  0.70920000  0.51680000  0.79740000  1.0
  C  C105  1  0.64980000  0.02680000  0.29940000  1.0
  C  C106  1  0.51100000  0.00700000  0.47590000  1.0
  C  C107  1  0.65260000  0.99580000  0.46060000  1.0
  C  C108  1  0.70810000  0.04520000  0.40620000  1.0
  C  C109  1  0.46960000  0.00580000  0.36960000  1.0
  C  C110  1  0.39920000  0.94380000  0.42100000  1.0
  C  C111  1  0.44940000  0.95160000  0.52860000  1.0
  N  N112  1  0.96750000  0.10160000  0.77690000  1.0
  N  N113  1  0.22530000  0.38400000  0.56030000  1.0
  N  N114  1  0.81540000  0.47480000  0.47780000  1.0
  N  N115  1  0.38410000  0.98100000  0.85290000  1.0
  N  N116  1  0.13410000  0.10160000  0.27690000  1.0
  N  N117  1  0.15870000  0.38400000  0.06030000  1.0
  N  N118  1  0.65940000  0.47480000  0.97780000  1.0
  N  N119  1  0.59690000  0.98100000  0.35290000  1.0
  O  O120  1  0.87680000  0.75000000  0.73100000  1.0
  O  O121  1  0.72140000  0.83200000  0.69690000  1.0
  O  O122  1  0.44760000  0.64620000  0.64190000  1.0
  O  O123  1  0.44450000  0.85360000  0.73390000  1.0
  O  O124  1  0.29750000  0.72860000  0.60130000  1.0
  O  O125  1  0.19110000  0.58300000  0.66780000  1.0
  O  O126  1  0.97410000  0.64740000  0.60980000  1.0
  O  O127  1  0.79480000  0.50200000  0.65580000  1.0
  O  O128  1  0.70620000  0.60900000  0.59830000  1.0
  O  O129  1  0.37750000  0.96660000  0.67520000  1.0
  O  O130  1  0.74170000  0.57040000  0.28830000  1.0
  O  O131  1  0.01890000  0.90620000  0.52790000  1.0
  O  O132  1  0.42430000  0.97280000  0.06990000  1.0
  O  O133  1  0.97250000  0.89240000  0.66360000  1.0
  O  O134  1  0.18310000  0.83100000  0.71920000  1.0
  O  O135  1  0.19120000  0.03780000  0.59990000  1.0
  O  O136  1  0.57990000  0.89980000  0.02860000  1.0
  O  O137  1  0.24320000  0.57360000  0.83280000  1.0
  O  O138  1  0.90260000  0.49800000  0.26810000  1.0
  O  O139  1  0.04660000  0.47860000  0.76430000  1.0
  O  O140  1  0.87320000  0.75000000  0.23100000  1.0
  O  O141  1  0.11060000  0.83200000  0.19690000  1.0
  O  O142  1  0.19860000  0.64620000  0.14190000  1.0
  O  O143  1  0.40910000  0.85360000  0.23390000  1.0
  O  O144  1  0.43110000  0.72860000  0.10130000  1.0
  O  O145  1  0.39190000  0.58300000  0.16780000  1.0
  O  O146  1  0.67330000  0.64740000  0.10980000  1.0
  O  O147  1  0.70720000  0.50200000  0.15580000  1.0
  O  O148  1  0.90280000  0.60900000  0.09830000  1.0
  O  O149  1  0.58910000  0.96660000  0.17520000  1.0
  O  O150  1  0.82870000  0.57040000  0.78830000  1.0
  O  O151  1  0.88730000  0.90620000  0.02790000  1.0
  O  O152  1  0.54850000  0.97280000  0.56990000  1.0
  O  O153  1  0.91990000  0.89240000  0.16360000  1.0
  O  O154  1  0.64790000  0.83100000  0.21920000  1.0
  O  O155  1  0.84660000  0.03780000  0.09990000  1.0
  O  O156  1  0.31990000  0.89980000  0.52860000  1.0
  O  O157  1  0.33040000  0.57360000  0.33280000  1.0
  O  O158  1  0.59540000  0.49800000  0.76810000  1.0
  O  O159  1  0.43200000  0.47860000  0.26430000  1.0
