# generated using pymatgen
data_GdH12(C5O2)3
_symmetry_space_group_name_H-M   'P 1'
_cell_length_a   21.86300000
_cell_length_b   10.03500000
_cell_length_c   13.85400000
_cell_angle_alpha   90.00000000
_cell_angle_beta   91.53000000
_cell_angle_gamma   90.00000000
_symmetry_Int_Tables_number   1
_chemical_formula_structural   GdH12(C5O2)3
_chemical_formula_sum   'Gd8 H96 C120 O48'
_cell_volume   3038.41753236
_cell_formula_units_Z   8
loop_
 _symmetry_equiv_pos_site_id
 _symmetry_equiv_pos_as_xyz
  1  'x, y, z'
loop_
 _atom_site_type_symbol
 _atom_site_label
 _atom_site_symmetry_multiplicity
 _atom_site_fract_x
 _atom_site_fract_y
 _atom_site_fract_z
 _atom_site_occupancy
  Gd  Gd0  1  0.25952000  0.56098000  0.26962000  1.0
  Gd  Gd1  1  0.24855000  0.74949000  0.02903000  1.0
  Gd  Gd2  1  0.74048000  0.06098000  0.23038000  1.0
  Gd  Gd3  1  0.75145000  0.24949000  0.47097000  1.0
  Gd  Gd4  1  0.74048000  0.43902000  0.73038000  1.0
  Gd  Gd5  1  0.75145000  0.25051000  0.97097000  1.0
  Gd  Gd6  1  0.25952000  0.93902000  0.76962000  1.0
  Gd  Gd7  1  0.24855000  0.75051000  0.52903000  1.0
  H  H8  1  0.42130000  0.67360000  0.05380000  1.0
  H  H9  1  0.40910000  0.52430000  0.02750000  1.0
  H  H10  1  0.15810000  0.99950000  0.29020000  1.0
  H  H11  1  0.13060000  0.85690000  0.30580000  1.0
  H  H12  1  0.11570000  0.40690000  0.14920000  1.0
  H  H13  1  0.13360000  0.34640000  0.04950000  1.0
  H  H14  1  0.51680000  0.73200000  0.12110000  1.0
  H  H15  1  0.46630000  0.34970000  0.13680000  1.0
  H  H16  1  0.37220000  0.12920000  0.09550000  1.0
  H  H17  1  0.37610000  0.20200000  0.99550000  1.0
  H  H18  1  0.31310000  0.48100000  0.76150000  1.0
  H  H19  1  0.33800000  0.61550000  0.71970000  1.0
  H  H20  1  0.09590000  0.96320000  0.98990000  1.0
  H  H21  1  0.08580000  0.81800000  0.95170000  1.0
  H  H22  1  0.09700000  0.16450000  0.20580000  1.0
  H  H23  1  0.04360000  0.78430000  0.19000000  1.0
  H  H24  1  0.07190000  0.40200000  0.90300000  1.0
  H  H25  1  0.02220000  0.53560000  0.16200000  1.0
  H  H26  1  0.61420000  0.67500000  0.17630000  1.0
  H  H27  1  0.56300000  0.29430000  0.19340000  1.0
  H  H28  1  0.00620000  0.22980000  0.13170000  1.0
  H  H29  1  0.95240000  0.85010000  0.11740000  1.0
  H  H30  1  0.47420000  0.07900000  0.14940000  1.0
  H  H31  1  0.43020000  0.00800000  0.87210000  1.0
  H  H32  1  0.57870000  0.17360000  0.44620000  1.0
  H  H33  1  0.59090000  0.02430000  0.47250000  1.0
  H  H34  1  0.84190000  0.49950000  0.20980000  1.0
  H  H35  1  0.86940000  0.35690000  0.19420000  1.0
  H  H36  1  0.88430000  0.90690000  0.35080000  1.0
  H  H37  1  0.86640000  0.84640000  0.45050000  1.0
  H  H38  1  0.48320000  0.23200000  0.37890000  1.0
  H  H39  1  0.53370000  0.84970000  0.36320000  1.0
  H  H40  1  0.62780000  0.62920000  0.40450000  1.0
  H  H41  1  0.62390000  0.70200000  0.50450000  1.0
  H  H42  1  0.68690000  0.98100000  0.73850000  1.0
  H  H43  1  0.66200000  0.11550000  0.78030000  1.0
  H  H44  1  0.90410000  0.46320000  0.51010000  1.0
  H  H45  1  0.91420000  0.31800000  0.54830000  1.0
  H  H46  1  0.90300000  0.66450000  0.29420000  1.0
  H  H47  1  0.95640000  0.28430000  0.31000000  1.0
  H  H48  1  0.92810000  0.90200000  0.59700000  1.0
  H  H49  1  0.97780000  0.03560000  0.33800000  1.0
  H  H50  1  0.38580000  0.17500000  0.32370000  1.0
  H  H51  1  0.43700000  0.79430000  0.30660000  1.0
  H  H52  1  0.99380000  0.72980000  0.36830000  1.0
  H  H53  1  0.04760000  0.35010000  0.38260000  1.0
  H  H54  1  0.52580000  0.57900000  0.35060000  1.0
  H  H55  1  0.56980000  0.50800000  0.62790000  1.0
  H  H56  1  0.57870000  0.32640000  0.94620000  1.0
  H  H57  1  0.59090000  0.47570000  0.97250000  1.0
  H  H58  1  0.84190000  0.00050000  0.70980000  1.0
  H  H59  1  0.86940000  0.14310000  0.69420000  1.0
  H  H60  1  0.88430000  0.59310000  0.85080000  1.0
  H  H61  1  0.86640000  0.65360000  0.95050000  1.0
  H  H62  1  0.48320000  0.26800000  0.87890000  1.0
  H  H63  1  0.53370000  0.65030000  0.86320000  1.0
  H  H64  1  0.62780000  0.87080000  0.90450000  1.0
  H  H65  1  0.62390000  0.79800000  0.00450000  1.0
  H  H66  1  0.68690000  0.51900000  0.23850000  1.0
  H  H67  1  0.66200000  0.38450000  0.28030000  1.0
  H  H68  1  0.90410000  0.03680000  0.01010000  1.0
  H  H69  1  0.91420000  0.18200000  0.04830000  1.0
  H  H70  1  0.90300000  0.83550000  0.79420000  1.0
  H  H71  1  0.95640000  0.21570000  0.81000000  1.0
  H  H72  1  0.92810000  0.59800000  0.09700000  1.0
  H  H73  1  0.97780000  0.46440000  0.83800000  1.0
  H  H74  1  0.38580000  0.32500000  0.82370000  1.0
  H  H75  1  0.43700000  0.70570000  0.80660000  1.0
  H  H76  1  0.99380000  0.77020000  0.86830000  1.0
  H  H77  1  0.04760000  0.14990000  0.88260000  1.0
  H  H78  1  0.52580000  0.92100000  0.85060000  1.0
  H  H79  1  0.56980000  0.99200000  0.12790000  1.0
  H  H80  1  0.42130000  0.82640000  0.55380000  1.0
  H  H81  1  0.40910000  0.97570000  0.52750000  1.0
  H  H82  1  0.15810000  0.50050000  0.79020000  1.0
  H  H83  1  0.13060000  0.64310000  0.80580000  1.0
  H  H84  1  0.11570000  0.09310000  0.64920000  1.0
  H  H85  1  0.13360000  0.15360000  0.54950000  1.0
  H  H86  1  0.51680000  0.76800000  0.62110000  1.0
  H  H87  1  0.46630000  0.15030000  0.63680000  1.0
  H  H88  1  0.37220000  0.37080000  0.59550000  1.0
  H  H89  1  0.37610000  0.29800000  0.49550000  1.0
  H  H90  1  0.31310000  0.01900000  0.26150000  1.0
  H  H91  1  0.33800000  0.88450000  0.21970000  1.0
  H  H92  1  0.09590000  0.53680000  0.48990000  1.0
  H  H93  1  0.08580000  0.68200000  0.45170000  1.0
  H  H94  1  0.09700000  0.33550000  0.70580000  1.0
  H  H95  1  0.04360000  0.71570000  0.69000000  1.0
  H  H96  1  0.07190000  0.09800000  0.40300000  1.0
  H  H97  1  0.02220000  0.96440000  0.66200000  1.0
  H  H98  1  0.61420000  0.82500000  0.67630000  1.0
  H  H99  1  0.56300000  0.20570000  0.69340000  1.0
  H  H100  1  0.00620000  0.27020000  0.63170000  1.0
  H  H101  1  0.95240000  0.64990000  0.61740000  1.0
  H  H102  1  0.47420000  0.42100000  0.64940000  1.0
  H  H103  1  0.43020000  0.49200000  0.37210000  1.0
  C  C104  1  0.36713000  0.58110000  0.14980000  1.0
  C  C105  1  0.18268000  0.86770000  0.18580000  1.0
  C  C106  1  0.16531000  0.53620000  0.06860000  1.0
  C  C107  1  0.41892000  0.58440000  0.08050000  1.0
  C  C108  1  0.13907000  0.92410000  0.25760000  1.0
  C  C109  1  0.11916000  0.42630000  0.08100000  1.0
  C  C110  1  0.48124000  0.54760000  0.12180000  1.0
  C  C111  1  0.32928000  0.02530000  0.98580000  1.0
  C  C112  1  0.30655000  0.63590000  0.85670000  1.0
  C  C113  1  0.14709000  0.92170000  0.87300000  1.0
  C  C114  1  0.07930000  0.96860000  0.20950000  1.0
  C  C115  1  0.05685000  0.46240000  0.03950000  1.0
  C  C116  1  0.52591000  0.64340000  0.13490000  1.0
  C  C117  1  0.49581000  0.41580000  0.14450000  1.0
  C  C118  1  0.37850000  0.11590000  0.02720000  1.0
  C  C119  1  0.33658000  0.56040000  0.77720000  1.0
  C  C120  1  0.09019000  0.91010000  0.93180000  1.0
  C  C121  1  0.06776000  0.10070000  0.18930000  1.0
  C  C122  1  0.03589000  0.87450000  0.18000000  1.0
  C  C123  1  0.04313000  0.44130000  0.94220000  1.0
  C  C124  1  0.01341000  0.52120000  0.09680000  1.0
  C  C125  1  0.58453000  0.60910000  0.16850000  1.0
  C  C126  1  0.55403000  0.38260000  0.17840000  1.0
  C  C127  1  0.44152000  0.05500000  0.01280000  1.0
  C  C128  1  0.40096000  0.52180000  0.80970000  1.0
  C  C129  1  0.03141000  0.95320000  0.88130000  1.0
  C  C130  1  0.01310000  0.14000000  0.14450000  1.0
  C  C131  1  0.98116000  0.91420000  0.13580000  1.0
  C  C132  1  0.48451000  0.04750000  0.08880000  1.0
  C  C133  1  0.45815000  0.00540000  0.92390000  1.0
  C  C134  1  0.63287000  0.08110000  0.35020000  1.0
  C  C135  1  0.81732000  0.36770000  0.31420000  1.0
  C  C136  1  0.83469000  0.03620000  0.43140000  1.0
  C  C137  1  0.58108000  0.08440000  0.41950000  1.0
  C  C138  1  0.86093000  0.42410000  0.24240000  1.0
  C  C139  1  0.88084000  0.92630000  0.41900000  1.0
  C  C140  1  0.51876000  0.04760000  0.37820000  1.0
  C  C141  1  0.67072000  0.52530000  0.51420000  1.0
  C  C142  1  0.69345000  0.13590000  0.64330000  1.0
  C  C143  1  0.85291000  0.42170000  0.62700000  1.0
  C  C144  1  0.92070000  0.46860000  0.29050000  1.0
  C  C145  1  0.94315000  0.96240000  0.46050000  1.0
  C  C146  1  0.47409000  0.14340000  0.36510000  1.0
  C  C147  1  0.50419000  0.91580000  0.35550000  1.0
  C  C148  1  0.62150000  0.61590000  0.47280000  1.0
  C  C149  1  0.66342000  0.06040000  0.72280000  1.0
  C  C150  1  0.90981000  0.41010000  0.56820000  1.0
  C  C151  1  0.93224000  0.60070000  0.31070000  1.0
  C  C152  1  0.96411000  0.37450000  0.32000000  1.0
  C  C153  1  0.95687000  0.94130000  0.55780000  1.0
  C  C154  1  0.98659000  0.02120000  0.40320000  1.0
  C  C155  1  0.41547000  0.10910000  0.33150000  1.0
  C  C156  1  0.44597000  0.88260000  0.32160000  1.0
  C  C157  1  0.55848000  0.55500000  0.48720000  1.0
  C  C158  1  0.59904000  0.02180000  0.69030000  1.0
  C  C159  1  0.96859000  0.45320000  0.61870000  1.0
  C  C160  1  0.98690000  0.64000000  0.35550000  1.0
  C  C161  1  0.01884000  0.41420000  0.36420000  1.0
  C  C162  1  0.51549000  0.54750000  0.41120000  1.0
  C  C163  1  0.54185000  0.50540000  0.57610000  1.0
  C  C164  1  0.63287000  0.41890000  0.85020000  1.0
  C  C165  1  0.81732000  0.13230000  0.81420000  1.0
  C  C166  1  0.83469000  0.46380000  0.93140000  1.0
  C  C167  1  0.58108000  0.41560000  0.91950000  1.0
  C  C168  1  0.86093000  0.07590000  0.74240000  1.0
  C  C169  1  0.88084000  0.57370000  0.91900000  1.0
  C  C170  1  0.51876000  0.45240000  0.87820000  1.0
  C  C171  1  0.67072000  0.97470000  0.01420000  1.0
  C  C172  1  0.69345000  0.36410000  0.14330000  1.0
  C  C173  1  0.85291000  0.07830000  0.12700000  1.0
  C  C174  1  0.92070000  0.03140000  0.79050000  1.0
  C  C175  1  0.94315000  0.53760000  0.96050000  1.0
  C  C176  1  0.47409000  0.35660000  0.86510000  1.0
  C  C177  1  0.50419000  0.58420000  0.85550000  1.0
  C  C178  1  0.62150000  0.88410000  0.97280000  1.0
  C  C179  1  0.66342000  0.43960000  0.22280000  1.0
  C  C180  1  0.90981000  0.08990000  0.06820000  1.0
  C  C181  1  0.93224000  0.89930000  0.81070000  1.0
  C  C182  1  0.96411000  0.12550000  0.82000000  1.0
  C  C183  1  0.95687000  0.55870000  0.05780000  1.0
  C  C184  1  0.98659000  0.47880000  0.90320000  1.0
  C  C185  1  0.41547000  0.39090000  0.83150000  1.0
  C  C186  1  0.44597000  0.61740000  0.82160000  1.0
  C  C187  1  0.55848000  0.94500000  0.98720000  1.0
  C  C188  1  0.59904000  0.47820000  0.19030000  1.0
  C  C189  1  0.96859000  0.04680000  0.11870000  1.0
  C  C190  1  0.98690000  0.86000000  0.85550000  1.0
  C  C191  1  0.01884000  0.08580000  0.86420000  1.0
  C  C192  1  0.51549000  0.95250000  0.91120000  1.0
  C  C193  1  0.54185000  0.99460000  0.07610000  1.0
  C  C194  1  0.36713000  0.91890000  0.64980000  1.0
  C  C195  1  0.18268000  0.63230000  0.68580000  1.0
  C  C196  1  0.16531000  0.96380000  0.56860000  1.0
  C  C197  1  0.41892000  0.91560000  0.58050000  1.0
  C  C198  1  0.13907000  0.57590000  0.75760000  1.0
  C  C199  1  0.11916000  0.07370000  0.58100000  1.0
  C  C200  1  0.48124000  0.95240000  0.62180000  1.0
  C  C201  1  0.32928000  0.47470000  0.48580000  1.0
  C  C202  1  0.30655000  0.86410000  0.35670000  1.0
  C  C203  1  0.14709000  0.57830000  0.37300000  1.0
  C  C204  1  0.07930000  0.53140000  0.70950000  1.0
  C  C205  1  0.05685000  0.03760000  0.53950000  1.0
  C  C206  1  0.52591000  0.85660000  0.63490000  1.0
  C  C207  1  0.49581000  0.08420000  0.64450000  1.0
  C  C208  1  0.37850000  0.38410000  0.52720000  1.0
  C  C209  1  0.33658000  0.93960000  0.27720000  1.0
  C  C210  1  0.09019000  0.58990000  0.43180000  1.0
  C  C211  1  0.06776000  0.39930000  0.68930000  1.0
  C  C212  1  0.03589000  0.62550000  0.68000000  1.0
  C  C213  1  0.04313000  0.05870000  0.44220000  1.0
  C  C214  1  0.01341000  0.97880000  0.59680000  1.0
  C  C215  1  0.58453000  0.89090000  0.66850000  1.0
  C  C216  1  0.55403000  0.11740000  0.67840000  1.0
  C  C217  1  0.44152000  0.44500000  0.51280000  1.0
  C  C218  1  0.40096000  0.97820000  0.30970000  1.0
  C  C219  1  0.03141000  0.54680000  0.38130000  1.0
  C  C220  1  0.01310000  0.36000000  0.64450000  1.0
  C  C221  1  0.98116000  0.58580000  0.63580000  1.0
  C  C222  1  0.48451000  0.45250000  0.58880000  1.0
  C  C223  1  0.45815000  0.49460000  0.42390000  1.0
  O  O224  1  0.36389000  0.49610000  0.21557000  1.0
  O  O225  1  0.32390000  0.66590000  0.13739000  1.0
  O  O226  1  0.21451000  0.76380000  0.20536000  1.0
  O  O227  1  0.21829000  0.52560000  0.10940000  1.0
  O  O228  1  0.18790000  0.92270000  0.10572000  1.0
  O  O229  1  0.31454000  0.92800000  0.03714000  1.0
  O  O230  1  0.15263000  0.63610000  0.01746000  1.0
  O  O231  1  0.30934000  0.76200000  0.86111000  1.0
  O  O232  1  0.28024000  0.57230000  0.92266000  1.0
  O  O233  1  0.19643000  0.86390000  0.90427000  1.0
  O  O234  1  0.30644000  0.05080000  0.90384000  1.0
  O  O235  1  0.14938000  0.98290000  0.79620000  1.0
  O  O236  1  0.63611000  0.99610000  0.28443000  1.0
  O  O237  1  0.67610000  0.16590000  0.36261000  1.0
  O  O238  1  0.78549000  0.26380000  0.29464000  1.0
  O  O239  1  0.78171000  0.02560000  0.39060000  1.0
  O  O240  1  0.81210000  0.42270000  0.39428000  1.0
  O  O241  1  0.68546000  0.42800000  0.46286000  1.0
  O  O242  1  0.84737000  0.13610000  0.48254000  1.0
  O  O243  1  0.69066000  0.26200000  0.63889000  1.0
  O  O244  1  0.71976000  0.07230000  0.57734000  1.0
  O  O245  1  0.80357000  0.36390000  0.59573000  1.0
  O  O246  1  0.69356000  0.55080000  0.59616000  1.0
  O  O247  1  0.85062000  0.48290000  0.70380000  1.0
  O  O248  1  0.63611000  0.50390000  0.78443000  1.0
  O  O249  1  0.67610000  0.33410000  0.86261000  1.0
  O  O250  1  0.78549000  0.23620000  0.79464000  1.0
  O  O251  1  0.78171000  0.47440000  0.89060000  1.0
  O  O252  1  0.81210000  0.07730000  0.89428000  1.0
  O  O253  1  0.68546000  0.07200000  0.96286000  1.0
  O  O254  1  0.84737000  0.36390000  0.98254000  1.0
  O  O255  1  0.69066000  0.23800000  0.13889000  1.0
  O  O256  1  0.71976000  0.42770000  0.07734000  1.0
  O  O257  1  0.80357000  0.13610000  0.09573000  1.0
  O  O258  1  0.69356000  0.94920000  0.09616000  1.0
  O  O259  1  0.85062000  0.01710000  0.20380000  1.0
  O  O260  1  0.36389000  0.00390000  0.71557000  1.0
  O  O261  1  0.32390000  0.83410000  0.63739000  1.0
  O  O262  1  0.21451000  0.73620000  0.70536000  1.0
  O  O263  1  0.21829000  0.97440000  0.60940000  1.0
  O  O264  1  0.18790000  0.57730000  0.60572000  1.0
  O  O265  1  0.31454000  0.57200000  0.53714000  1.0
  O  O266  1  0.15263000  0.86390000  0.51746000  1.0
  O  O267  1  0.30934000  0.73800000  0.36111000  1.0
  O  O268  1  0.28024000  0.92770000  0.42266000  1.0
  O  O269  1  0.19643000  0.63610000  0.40427000  1.0
  O  O270  1  0.30644000  0.44920000  0.40384000  1.0
  O  O271  1  0.14938000  0.51710000  0.29620000  1.0
