# generated using pymatgen
data_Cu3Mo3H24C40(N4O3)2
_symmetry_space_group_name_H-M   'P 1'
_cell_length_a   9.58790000
_cell_length_b   21.84440000
_cell_length_c   21.84530000
_cell_angle_alpha   90.00000000
_cell_angle_beta   98.78500000
_cell_angle_gamma   90.00000000
_symmetry_Int_Tables_number   1
_chemical_formula_structural   Cu3Mo3H24C40(N4O3)2
_chemical_formula_sum   'Cu12 Mo12 H96 C160 N32 O24'
_cell_volume   4521.64578821
_cell_formula_units_Z   4
loop_
 _symmetry_equiv_pos_site_id
 _symmetry_equiv_pos_as_xyz
  1  'x, y, z'
loop_
 _atom_site_type_symbol
 _atom_site_label
 _atom_site_symmetry_multiplicity
 _atom_site_fract_x
 _atom_site_fract_y
 _atom_site_fract_z
 _atom_site_occupancy
  Cu  Cu0  1  0.94621000  0.68985000  0.85159000  1.0
  Cu  Cu1  1  0.45376000  0.67182000  0.67162000  1.0
  Cu  Cu2  1  0.49684000  0.76040000  0.25211000  1.0
  Cu  Cu3  1  0.55379000  0.18985000  0.14841000  1.0
  Cu  Cu4  1  0.04624000  0.17182000  0.32838000  1.0
  Cu  Cu5  1  0.00316000  0.26040000  0.74789000  1.0
  Cu  Cu6  1  0.05379000  0.31015000  0.14841000  1.0
  Cu  Cu7  1  0.54624000  0.32818000  0.32838000  1.0
  Cu  Cu8  1  0.50316000  0.23960000  0.74789000  1.0
  Cu  Cu9  1  0.44621000  0.81015000  0.85159000  1.0
  Cu  Cu10  1  0.95376000  0.82818000  0.67162000  1.0
  Cu  Cu11  1  0.99684000  0.73960000  0.25211000  1.0
  Mo  Mo12  1  0.88018000  0.67308000  0.64934000  1.0
  Mo  Mo13  1  0.54439000  0.66313000  0.84041000  1.0
  Mo  Mo14  1  0.68828000  0.75092000  0.73971000  1.0
  Mo  Mo15  1  0.61982000  0.17308000  0.35066000  1.0
  Mo  Mo16  1  0.95561000  0.16313000  0.15959000  1.0
  Mo  Mo17  1  0.81172000  0.25092000  0.26029000  1.0
  Mo  Mo18  1  0.11982000  0.32692000  0.35066000  1.0
  Mo  Mo19  1  0.45561000  0.33687000  0.15959000  1.0
  Mo  Mo20  1  0.31172000  0.24908000  0.26029000  1.0
  Mo  Mo21  1  0.38018000  0.82692000  0.64934000  1.0
  Mo  Mo22  1  0.04439000  0.83687000  0.84041000  1.0
  Mo  Mo23  1  0.18828000  0.74908000  0.73971000  1.0
  H  H24  1  0.90680000  0.65640000  0.98110000  1.0
  H  H25  1  0.23760000  0.70020000  0.90840000  1.0
  H  H26  1  0.02800000  0.67590000  0.07930000  1.0
  H  H27  1  0.36590000  0.72320000  0.00350000  1.0
  H  H28  1  0.71540000  0.07290000  0.17890000  1.0
  H  H29  1  0.31700000  0.10880000  0.16210000  1.0
  H  H30  1  0.26250000  0.00660000  0.18360000  1.0
  H  H31  1  0.66630000  0.96990000  0.20160000  1.0
  H  H32  1  0.56610000  0.82910000  0.49410000  1.0
  H  H33  1  0.68010000  0.83680000  0.59810000  1.0
  H  H34  1  0.04950000  0.81500000  0.55130000  1.0
  H  H35  1  0.95280000  0.80590000  0.44500000  1.0
  H  H36  1  0.76990000  0.42150000  0.32280000  1.0
  H  H37  1  0.35310000  0.43080000  0.32380000  1.0
  H  H38  1  0.77750000  0.52970000  0.30820000  1.0
  H  H39  1  0.35840000  0.53570000  0.30220000  1.0
  H  H40  1  0.17150000  0.82780000  0.05420000  1.0
  H  H41  1  0.26910000  0.92450000  0.10360000  1.0
  H  H42  1  0.57670000  0.98250000  0.31820000  1.0
  H  H43  1  0.67130000  0.92660000  0.41090000  1.0
  H  H44  1  0.78970000  0.69250000  0.45640000  1.0
  H  H45  1  0.71930000  0.59560000  0.40270000  1.0
  H  H46  1  0.45060000  0.53960000  0.18020000  1.0
  H  H47  1  0.31330000  0.59500000  0.09560000  1.0
  H  H48  1  0.59320000  0.15640000  0.01890000  1.0
  H  H49  1  0.26240000  0.20020000  0.09160000  1.0
  H  H50  1  0.47200000  0.17590000  0.92070000  1.0
  H  H51  1  0.13410000  0.22320000  0.99650000  1.0
  H  H52  1  0.78460000  0.57290000  0.82110000  1.0
  H  H53  1  0.18300000  0.60880000  0.83790000  1.0
  H  H54  1  0.23750000  0.50660000  0.81640000  1.0
  H  H55  1  0.83370000  0.46990000  0.79840000  1.0
  H  H56  1  0.93390000  0.32910000  0.50590000  1.0
  H  H57  1  0.81990000  0.33680000  0.40190000  1.0
  H  H58  1  0.45050000  0.31500000  0.44870000  1.0
  H  H59  1  0.54720000  0.30590000  0.55500000  1.0
  H  H60  1  0.73010000  0.92150000  0.67720000  1.0
  H  H61  1  0.14690000  0.93080000  0.67620000  1.0
  H  H62  1  0.72250000  0.02970000  0.69180000  1.0
  H  H63  1  0.14160000  0.03570000  0.69780000  1.0
  H  H64  1  0.32850000  0.32780000  0.94580000  1.0
  H  H65  1  0.23090000  0.42450000  0.89640000  1.0
  H  H66  1  0.92330000  0.48250000  0.68180000  1.0
  H  H67  1  0.82870000  0.42660000  0.58910000  1.0
  H  H68  1  0.71030000  0.19250000  0.54360000  1.0
  H  H69  1  0.78070000  0.09560000  0.59730000  1.0
  H  H70  1  0.04940000  0.03960000  0.81980000  1.0
  H  H71  1  0.18670000  0.09500000  0.90440000  1.0
  H  H72  1  0.09320000  0.34360000  0.01890000  1.0
  H  H73  1  0.76240000  0.29980000  0.09160000  1.0
  H  H74  1  0.97200000  0.32410000  0.92070000  1.0
  H  H75  1  0.63410000  0.27680000  0.99650000  1.0
  H  H76  1  0.28460000  0.92710000  0.82110000  1.0
  H  H77  1  0.68300000  0.89120000  0.83790000  1.0
  H  H78  1  0.73750000  0.99340000  0.81640000  1.0
  H  H79  1  0.33370000  0.03010000  0.79840000  1.0
  H  H80  1  0.43390000  0.17090000  0.50590000  1.0
  H  H81  1  0.31990000  0.16320000  0.40190000  1.0
  H  H82  1  0.95050000  0.18500000  0.44870000  1.0
  H  H83  1  0.04720000  0.19410000  0.55500000  1.0
  H  H84  1  0.23010000  0.57850000  0.67720000  1.0
  H  H85  1  0.64690000  0.56920000  0.67620000  1.0
  H  H86  1  0.22250000  0.47030000  0.69180000  1.0
  H  H87  1  0.64160000  0.46430000  0.69780000  1.0
  H  H88  1  0.82850000  0.17220000  0.94580000  1.0
  H  H89  1  0.73090000  0.07550000  0.89640000  1.0
  H  H90  1  0.42330000  0.01750000  0.68180000  1.0
  H  H91  1  0.32870000  0.07340000  0.58910000  1.0
  H  H92  1  0.21030000  0.30750000  0.54360000  1.0
  H  H93  1  0.28070000  0.40440000  0.59730000  1.0
  H  H94  1  0.54940000  0.46040000  0.81980000  1.0
  H  H95  1  0.68670000  0.40500000  0.90440000  1.0
  H  H96  1  0.40680000  0.84360000  0.98110000  1.0
  H  H97  1  0.73760000  0.79980000  0.90840000  1.0
  H  H98  1  0.52800000  0.82410000  0.07930000  1.0
  H  H99  1  0.86590000  0.77680000  0.00350000  1.0
  H  H100  1  0.21540000  0.42710000  0.17890000  1.0
  H  H101  1  0.81700000  0.39120000  0.16210000  1.0
  H  H102  1  0.76250000  0.49340000  0.18360000  1.0
  H  H103  1  0.16630000  0.53010000  0.20160000  1.0
  H  H104  1  0.06610000  0.67090000  0.49410000  1.0
  H  H105  1  0.18010000  0.66320000  0.59810000  1.0
  H  H106  1  0.54950000  0.68500000  0.55130000  1.0
  H  H107  1  0.45280000  0.69410000  0.44500000  1.0
  H  H108  1  0.26990000  0.07850000  0.32280000  1.0
  H  H109  1  0.85310000  0.06920000  0.32380000  1.0
  H  H110  1  0.27750000  0.97030000  0.30820000  1.0
  H  H111  1  0.85840000  0.96430000  0.30220000  1.0
  H  H112  1  0.67150000  0.67220000  0.05420000  1.0
  H  H113  1  0.76910000  0.57550000  0.10360000  1.0
  H  H114  1  0.07670000  0.51750000  0.31820000  1.0
  H  H115  1  0.17130000  0.57340000  0.41090000  1.0
  H  H116  1  0.28970000  0.80750000  0.45640000  1.0
  H  H117  1  0.21930000  0.90440000  0.40270000  1.0
  H  H118  1  0.95060000  0.96040000  0.18020000  1.0
  H  H119  1  0.81330000  0.90500000  0.09560000  1.0
  C  C120  1  0.99850000  0.67150000  0.98590000  1.0
  C  C121  1  0.19480000  0.69780000  0.94380000  1.0
  C  C122  1  0.07240000  0.68320000  0.04510000  1.0
  C  C123  1  0.27230000  0.71070000  0.00030000  1.0
  C  C124  1  0.20560000  0.70460000  0.05410000  1.0
  C  C125  1  0.62270000  0.06090000  0.17980000  1.0
  C  C126  1  0.39090000  0.08100000  0.17010000  1.0
  C  C127  1  0.35530000  0.01890000  0.18350000  1.0
  C  C128  1  0.59190000  0.99760000  0.19400000  1.0
  C  C129  1  0.46770000  0.97860000  0.19650000  1.0
  C  C130  1  0.66320000  0.82440000  0.50460000  1.0
  C  C131  1  0.73350000  0.82940000  0.56670000  1.0
  C  C132  1  0.75120000  0.81180000  0.46040000  1.0
  C  C133  1  0.95220000  0.81650000  0.53940000  1.0
  C  C134  1  0.89490000  0.81050000  0.47520000  1.0
  C  C135  1  0.68790000  0.44480000  0.31930000  1.0
  C  C136  1  0.43670000  0.45040000  0.31890000  1.0
  C  C137  1  0.56340000  0.54140000  0.29990000  1.0
  C  C138  1  0.69240000  0.50950000  0.30890000  1.0
  C  C139  1  0.44140000  0.51300000  0.30630000  1.0
  C  C140  1  0.29370000  0.72230000  0.11530000  1.0
  C  C141  1  0.30480000  0.78270000  0.13130000  1.0
  C  C142  1  0.23570000  0.83200000  0.09040000  1.0
  C  C143  1  0.28840000  0.88510000  0.11850000  1.0
  C  C144  1  0.37890000  0.86920000  0.17520000  1.0
  C  C145  1  0.45200000  0.91270000  0.21610000  1.0
  C  C146  1  0.52260000  0.89750000  0.27550000  1.0
  C  C147  1  0.57880000  0.94010000  0.32240000  1.0
  C  C148  1  0.63410000  0.91000000  0.37270000  1.0
  C  C149  1  0.62420000  0.84350000  0.35520000  1.0
  C  C150  1  0.68040000  0.79750000  0.39440000  1.0
  C  C151  1  0.67910000  0.73660000  0.37600000  1.0
  C  C152  1  0.73700000  0.68800000  0.41730000  1.0
  C  C153  1  0.69930000  0.63490000  0.38750000  1.0
  C  C154  1  0.62100000  0.65100000  0.32690000  1.0
  C  C155  1  0.56650000  0.60970000  0.28260000  1.0
  C  C156  1  0.48240000  0.62420000  0.22650000  1.0
  C  C157  1  0.43360000  0.58150000  0.17880000  1.0
  C  C158  1  0.36010000  0.61160000  0.13230000  1.0
  C  C159  1  0.36670000  0.67460000  0.14940000  1.0
  C  C160  1  0.50150000  0.17150000  0.01410000  1.0
  C  C161  1  0.30520000  0.19780000  0.05620000  1.0
  C  C162  1  0.42760000  0.18320000  0.95490000  1.0
  C  C163  1  0.22770000  0.21070000  0.99970000  1.0
  C  C164  1  0.29440000  0.20460000  0.94590000  1.0
  C  C165  1  0.87730000  0.56090000  0.82020000  1.0
  C  C166  1  0.10910000  0.58100000  0.82990000  1.0
  C  C167  1  0.14470000  0.51890000  0.81650000  1.0
  C  C168  1  0.90810000  0.49760000  0.80600000  1.0
  C  C169  1  0.03230000  0.47860000  0.80350000  1.0
  C  C170  1  0.83680000  0.32440000  0.49540000  1.0
  C  C171  1  0.76650000  0.32940000  0.43330000  1.0
  C  C172  1  0.74880000  0.31180000  0.53960000  1.0
  C  C173  1  0.54780000  0.31650000  0.46060000  1.0
  C  C174  1  0.60510000  0.31050000  0.52480000  1.0
  C  C175  1  0.81210000  0.94480000  0.68070000  1.0
  C  C176  1  0.06330000  0.95040000  0.68110000  1.0
  C  C177  1  0.93660000  0.04140000  0.70010000  1.0
  C  C178  1  0.80760000  0.00950000  0.69110000  1.0
  C  C179  1  0.05860000  0.01300000  0.69370000  1.0
  C  C180  1  0.20630000  0.22230000  0.88470000  1.0
  C  C181  1  0.19520000  0.28270000  0.86870000  1.0
  C  C182  1  0.26430000  0.33200000  0.90960000  1.0
  C  C183  1  0.21160000  0.38510000  0.88150000  1.0
  C  C184  1  0.12110000  0.36920000  0.82480000  1.0
  C  C185  1  0.04800000  0.41270000  0.78390000  1.0
  C  C186  1  0.97740000  0.39750000  0.72450000  1.0
  C  C187  1  0.92120000  0.44010000  0.67760000  1.0
  C  C188  1  0.86590000  0.41000000  0.62730000  1.0
  C  C189  1  0.87580000  0.34350000  0.64480000  1.0
  C  C190  1  0.81960000  0.29750000  0.60560000  1.0
  C  C191  1  0.82090000  0.23660000  0.62400000  1.0
  C  C192  1  0.76300000  0.18800000  0.58270000  1.0
  C  C193  1  0.80070000  0.13490000  0.61250000  1.0
  C  C194  1  0.87900000  0.15100000  0.67310000  1.0
  C  C195  1  0.93350000  0.10970000  0.71740000  1.0
  C  C196  1  0.01760000  0.12420000  0.77350000  1.0
  C  C197  1  0.06640000  0.08150000  0.82120000  1.0
  C  C198  1  0.13990000  0.11160000  0.86770000  1.0
  C  C199  1  0.13330000  0.17460000  0.85060000  1.0
  C  C200  1  0.00150000  0.32850000  0.01410000  1.0
  C  C201  1  0.80520000  0.30220000  0.05620000  1.0
  C  C202  1  0.92760000  0.31680000  0.95490000  1.0
  C  C203  1  0.72770000  0.28930000  0.99970000  1.0
  C  C204  1  0.79440000  0.29540000  0.94590000  1.0
  C  C205  1  0.37730000  0.93910000  0.82020000  1.0
  C  C206  1  0.60910000  0.91900000  0.82990000  1.0
  C  C207  1  0.64470000  0.98110000  0.81650000  1.0
  C  C208  1  0.40810000  0.00240000  0.80600000  1.0
  C  C209  1  0.53230000  0.02140000  0.80350000  1.0
  C  C210  1  0.33680000  0.17560000  0.49540000  1.0
  C  C211  1  0.26650000  0.17060000  0.43330000  1.0
  C  C212  1  0.24880000  0.18820000  0.53960000  1.0
  C  C213  1  0.04780000  0.18350000  0.46060000  1.0
  C  C214  1  0.10510000  0.18950000  0.52480000  1.0
  C  C215  1  0.31210000  0.55520000  0.68070000  1.0
  C  C216  1  0.56330000  0.54960000  0.68110000  1.0
  C  C217  1  0.43660000  0.45860000  0.70010000  1.0
  C  C218  1  0.30760000  0.49050000  0.69110000  1.0
  C  C219  1  0.55860000  0.48700000  0.69370000  1.0
  C  C220  1  0.70630000  0.27770000  0.88470000  1.0
  C  C221  1  0.69520000  0.21730000  0.86870000  1.0
  C  C222  1  0.76430000  0.16800000  0.90960000  1.0
  C  C223  1  0.71160000  0.11490000  0.88150000  1.0
  C  C224  1  0.62110000  0.13080000  0.82480000  1.0
  C  C225  1  0.54800000  0.08730000  0.78390000  1.0
  C  C226  1  0.47740000  0.10250000  0.72450000  1.0
  C  C227  1  0.42120000  0.05990000  0.67760000  1.0
  C  C228  1  0.36590000  0.09000000  0.62730000  1.0
  C  C229  1  0.37580000  0.15650000  0.64480000  1.0
  C  C230  1  0.31960000  0.20250000  0.60560000  1.0
  C  C231  1  0.32090000  0.26340000  0.62400000  1.0
  C  C232  1  0.26300000  0.31200000  0.58270000  1.0
  C  C233  1  0.30070000  0.36510000  0.61250000  1.0
  C  C234  1  0.37900000  0.34900000  0.67310000  1.0
  C  C235  1  0.43350000  0.39030000  0.71740000  1.0
  C  C236  1  0.51760000  0.37580000  0.77350000  1.0
  C  C237  1  0.56640000  0.41850000  0.82120000  1.0
  C  C238  1  0.63990000  0.38840000  0.86770000  1.0
  C  C239  1  0.63330000  0.32540000  0.85060000  1.0
  C  C240  1  0.49850000  0.82850000  0.98590000  1.0
  C  C241  1  0.69480000  0.80220000  0.94380000  1.0
  C  C242  1  0.57240000  0.81680000  0.04510000  1.0
  C  C243  1  0.77230000  0.78930000  0.00030000  1.0
  C  C244  1  0.70560000  0.79540000  0.05410000  1.0
  C  C245  1  0.12270000  0.43910000  0.17980000  1.0
  C  C246  1  0.89090000  0.41900000  0.17010000  1.0
  C  C247  1  0.85530000  0.48110000  0.18350000  1.0
  C  C248  1  0.09190000  0.50240000  0.19400000  1.0
  C  C249  1  0.96770000  0.52140000  0.19650000  1.0
  C  C250  1  0.16320000  0.67560000  0.50460000  1.0
  C  C251  1  0.23350000  0.67060000  0.56670000  1.0
  C  C252  1  0.25120000  0.68820000  0.46040000  1.0
  C  C253  1  0.45220000  0.68350000  0.53940000  1.0
  C  C254  1  0.39490000  0.68950000  0.47520000  1.0
  C  C255  1  0.18790000  0.05520000  0.31930000  1.0
  C  C256  1  0.93670000  0.04960000  0.31890000  1.0
  C  C257  1  0.06340000  0.95860000  0.29990000  1.0
  C  C258  1  0.19240000  0.99050000  0.30890000  1.0
  C  C259  1  0.94140000  0.98700000  0.30630000  1.0
  C  C260  1  0.79370000  0.77770000  0.11530000  1.0
  C  C261  1  0.80480000  0.71730000  0.13130000  1.0
  C  C262  1  0.73570000  0.66800000  0.09040000  1.0
  C  C263  1  0.78840000  0.61490000  0.11850000  1.0
  C  C264  1  0.87890000  0.63080000  0.17520000  1.0
  C  C265  1  0.95200000  0.58730000  0.21610000  1.0
  C  C266  1  0.02260000  0.60250000  0.27550000  1.0
  C  C267  1  0.07880000  0.55990000  0.32240000  1.0
  C  C268  1  0.13410000  0.59000000  0.37270000  1.0
  C  C269  1  0.12420000  0.65650000  0.35520000  1.0
  C  C270  1  0.18040000  0.70250000  0.39440000  1.0
  C  C271  1  0.17910000  0.76340000  0.37600000  1.0
  C  C272  1  0.23700000  0.81200000  0.41730000  1.0
  C  C273  1  0.19930000  0.86510000  0.38750000  1.0
  C  C274  1  0.12100000  0.84900000  0.32690000  1.0
  C  C275  1  0.06650000  0.89030000  0.28260000  1.0
  C  C276  1  0.98240000  0.87580000  0.22650000  1.0
  C  C277  1  0.93360000  0.91850000  0.17880000  1.0
  C  C278  1  0.86010000  0.88840000  0.13230000  1.0
  C  C279  1  0.86670000  0.82540000  0.14940000  1.0
  N  N280  1  0.05820000  0.68180000  0.93840000  1.0
  N  N281  1  0.51870000  0.10150000  0.16810000  1.0
  N  N282  1  0.87170000  0.82390000  0.58130000  1.0
  N  N283  1  0.56640000  0.41880000  0.32360000  1.0
  N  N284  1  0.54800000  0.83840000  0.29740000  1.0
  N  N285  1  0.60630000  0.71340000  0.32160000  1.0
  N  N286  1  0.44090000  0.68130000  0.20870000  1.0
  N  N287  1  0.38630000  0.80710000  0.18360000  1.0
  N  N288  1  0.44180000  0.18180000  0.06160000  1.0
  N  N289  1  0.98130000  0.60150000  0.83190000  1.0
  N  N290  1  0.62830000  0.32390000  0.41870000  1.0
  N  N291  1  0.93360000  0.91880000  0.67640000  1.0
  N  N292  1  0.95200000  0.33840000  0.70260000  1.0
  N  N293  1  0.89370000  0.21340000  0.67840000  1.0
  N  N294  1  0.05910000  0.18130000  0.79130000  1.0
  N  N295  1  0.11370000  0.30710000  0.81640000  1.0
  N  N296  1  0.94180000  0.31820000  0.06160000  1.0
  N  N297  1  0.48130000  0.89850000  0.83190000  1.0
  N  N298  1  0.12830000  0.17610000  0.41870000  1.0
  N  N299  1  0.43360000  0.58120000  0.67640000  1.0
  N  N300  1  0.45200000  0.16160000  0.70260000  1.0
  N  N301  1  0.39370000  0.28660000  0.67840000  1.0
  N  N302  1  0.55910000  0.31870000  0.79130000  1.0
  N  N303  1  0.61370000  0.19290000  0.81640000  1.0
  N  N304  1  0.55820000  0.81820000  0.93840000  1.0
  N  N305  1  0.01870000  0.39850000  0.16810000  1.0
  N  N306  1  0.37170000  0.67610000  0.58130000  1.0
  N  N307  1  0.06640000  0.08120000  0.32360000  1.0
  N  N308  1  0.04800000  0.66160000  0.29740000  1.0
  N  N309  1  0.10630000  0.78660000  0.32160000  1.0
  N  N310  1  0.94090000  0.81870000  0.20870000  1.0
  N  N311  1  0.88630000  0.69290000  0.18360000  1.0
  O  O312  1  0.69560000  0.68790000  0.65800000  1.0
  O  O313  1  0.75480000  0.81260000  0.70370000  1.0
  O  O314  1  0.83650000  0.70590000  0.77140000  1.0
  O  O315  1  0.93790000  0.77860000  0.86990000  1.0
  O  O316  1  0.00010000  0.73870000  0.67730000  1.0
  O  O317  1  0.55360000  0.67230000  0.75760000  1.0
  O  O318  1  0.80440000  0.18790000  0.34200000  1.0
  O  O319  1  0.74520000  0.31260000  0.29630000  1.0
  O  O320  1  0.66350000  0.20590000  0.22860000  1.0
  O  O321  1  0.56210000  0.27860000  0.13010000  1.0
  O  O322  1  0.49990000  0.23870000  0.32270000  1.0
  O  O323  1  0.94640000  0.17230000  0.24240000  1.0
  O  O324  1  0.30440000  0.31210000  0.34200000  1.0
  O  O325  1  0.24520000  0.18740000  0.29630000  1.0
  O  O326  1  0.16350000  0.29410000  0.22860000  1.0
  O  O327  1  0.06210000  0.22140000  0.13010000  1.0
  O  O328  1  0.99990000  0.26130000  0.32270000  1.0
  O  O329  1  0.44640000  0.32770000  0.24240000  1.0
  O  O330  1  0.19560000  0.81210000  0.65800000  1.0
  O  O331  1  0.25480000  0.68740000  0.70370000  1.0
  O  O332  1  0.33650000  0.79410000  0.77140000  1.0
  O  O333  1  0.43790000  0.72140000  0.86990000  1.0
  O  O334  1  0.50010000  0.76130000  0.67730000  1.0
  O  O335  1  0.05360000  0.82770000  0.75760000  1.0
