# generated using pymatgen
data_EuHC5(NO2)2
_symmetry_space_group_name_H-M   'P 1'
_cell_length_a   16.17600000
_cell_length_b   16.47300000
_cell_length_c   16.47300000
_cell_angle_alpha   76.05050000
_cell_angle_beta   60.59460000
_cell_angle_gamma   60.59460000
_symmetry_Int_Tables_number   1
_chemical_formula_structural   EuHC5(NO2)2
_chemical_formula_sum   'Eu16 H16 C80 N32 O64'
_cell_volume   3331.34725990
_cell_formula_units_Z   16
loop_
 _symmetry_equiv_pos_site_id
 _symmetry_equiv_pos_as_xyz
  1  'x, y, z'
loop_
 _atom_site_type_symbol
 _atom_site_label
 _atom_site_symmetry_multiplicity
 _atom_site_fract_x
 _atom_site_fract_y
 _atom_site_fract_z
 _atom_site_occupancy
  Eu  Eu0  1  0.23742000  0.87893000  0.46873000  1.0
  Eu  Eu1  1  0.03567000  0.61374000  0.47688000  1.0
  Eu  Eu2  1  0.08508000  0.62107000  0.03127000  1.0
  Eu  Eu3  1  0.62629000  0.88626000  0.02312000  1.0
  Eu  Eu4  1  0.70615000  0.53127000  0.37893000  1.0
  Eu  Eu5  1  0.51255000  0.52312000  0.11374000  1.0
  Eu  Eu6  1  0.11635000  0.96873000  0.12107000  1.0
  Eu  Eu7  1  0.64941000  0.97688000  0.38626000  1.0
  Eu  Eu8  1  0.76258000  0.12107000  0.53127000  1.0
  Eu  Eu9  1  0.96433000  0.38626000  0.52312000  1.0
  Eu  Eu10  1  0.91492000  0.37893000  0.96873000  1.0
  Eu  Eu11  1  0.37371000  0.11374000  0.97688000  1.0
  Eu  Eu12  1  0.29385000  0.46873000  0.62107000  1.0
  Eu  Eu13  1  0.48745000  0.47688000  0.88626000  1.0
  Eu  Eu14  1  0.88365000  0.03127000  0.87893000  1.0
  Eu  Eu15  1  0.35059000  0.02312000  0.61374000  1.0
  H  H16  1  0.05710000  0.75300000  0.24860000  1.0
  H  H17  1  0.36270000  0.90290000  0.21890000  1.0
  H  H18  1  0.55870000  0.74700000  0.25140000  1.0
  H  H19  1  0.98450000  0.59710000  0.28110000  1.0
  H  H20  1  0.30570000  0.75140000  0.25300000  1.0
  H  H21  1  0.58160000  0.78110000  0.40290000  1.0
  H  H22  1  0.81010000  0.74860000  0.24700000  1.0
  H  H23  1  0.26560000  0.71890000  0.09710000  1.0
  H  H24  1  0.94290000  0.24700000  0.75140000  1.0
  H  H25  1  0.63730000  0.09710000  0.78110000  1.0
  H  H26  1  0.44130000  0.25300000  0.74860000  1.0
  H  H27  1  0.01550000  0.40290000  0.71890000  1.0
  H  H28  1  0.69430000  0.24860000  0.74700000  1.0
  H  H29  1  0.41840000  0.21890000  0.59710000  1.0
  H  H30  1  0.18990000  0.25140000  0.75300000  1.0
  H  H31  1  0.73440000  0.28110000  0.90290000  1.0
  C  C32  1  0.06860000  0.77880000  0.28420000  1.0
  C  C33  1  0.09630000  0.86930000  0.32990000  1.0
  C  C34  1  0.09000000  0.79760000  0.39520000  1.0
  C  C35  1  0.09350000  0.77710000  0.48630000  1.0
  C  C36  1  0.11610000  0.94970000  0.32090000  1.0
  C  C37  1  0.39810000  0.91520000  0.24140000  1.0
  C  C38  1  0.43530000  0.94450000  0.33630000  1.0
  C  C39  1  0.50470000  0.95040000  0.24860000  1.0
  C  C40  1  0.59690000  0.97000000  0.20740000  1.0
  C  C41  1  0.41920000  0.95170000  0.43210000  1.0
  C  C42  1  0.63160000  0.72120000  0.21580000  1.0
  C  C43  1  0.79550000  0.63070000  0.17010000  1.0
  C  C44  1  0.78280000  0.70240000  0.10480000  1.0
  C  C45  1  0.85690000  0.72290000  0.01370000  1.0
  C  C46  1  0.88670000  0.55030000  0.17910000  1.0
  C  C47  1  0.05470000  0.58480000  0.25860000  1.0
  C  C48  1  0.21610000  0.55550000  0.16370000  1.0
  C  C49  1  0.20370000  0.54960000  0.25140000  1.0
  C  C50  1  0.27430000  0.53000000  0.29260000  1.0
  C  C51  1  0.30300000  0.54830000  0.06790000  1.0
  C  C52  1  0.35280000  0.71580000  0.27880000  1.0
  C  C53  1  0.42620000  0.67010000  0.36930000  1.0
  C  C54  1  0.48520000  0.60480000  0.29760000  1.0
  C  C55  1  0.57980000  0.51370000  0.27710000  1.0
  C  C56  1  0.43700000  0.67910000  0.44970000  1.0
  C  C57  1  0.63950000  0.75860000  0.41520000  1.0
  C  C58  1  0.77160000  0.66370000  0.44450000  1.0
  C  C59  1  0.75330000  0.75140000  0.45040000  1.0
  C  C60  1  0.80430000  0.79260000  0.47000000  1.0
  C  C61  1  0.85130000  0.56790000  0.45170000  1.0
  C  C62  1  0.84740000  0.78420000  0.22120000  1.0
  C  C63  1  0.96560000  0.82990000  0.13070000  1.0
  C  C64  1  0.88760000  0.89520000  0.20240000  1.0
  C  C65  1  0.87060000  0.98630000  0.22290000  1.0
  C  C66  1  0.06580000  0.82090000  0.05030000  1.0
  C  C67  1  0.31330000  0.74140000  0.08480000  1.0
  C  C68  1  0.37980000  0.83630000  0.05550000  1.0
  C  C69  1  0.45510000  0.74860000  0.04960000  1.0
  C  C70  1  0.56690000  0.70740000  0.03000000  1.0
  C  C71  1  0.37090000  0.93210000  0.04830000  1.0
  C  C72  1  0.93140000  0.22120000  0.71580000  1.0
  C  C73  1  0.90370000  0.13070000  0.67010000  1.0
  C  C74  1  0.91000000  0.20240000  0.60480000  1.0
  C  C75  1  0.90650000  0.22290000  0.51370000  1.0
  C  C76  1  0.88390000  0.05030000  0.67910000  1.0
  C  C77  1  0.60190000  0.08480000  0.75860000  1.0
  C  C78  1  0.56470000  0.05550000  0.66370000  1.0
  C  C79  1  0.49530000  0.04960000  0.75140000  1.0
  C  C80  1  0.40310000  0.03000000  0.79260000  1.0
  C  C81  1  0.58080000  0.04830000  0.56790000  1.0
  C  C82  1  0.36840000  0.27880000  0.78420000  1.0
  C  C83  1  0.20450000  0.36930000  0.82990000  1.0
  C  C84  1  0.21720000  0.29760000  0.89520000  1.0
  C  C85  1  0.14310000  0.27710000  0.98630000  1.0
  C  C86  1  0.11330000  0.44970000  0.82090000  1.0
  C  C87  1  0.94530000  0.41520000  0.74140000  1.0
  C  C88  1  0.78390000  0.44450000  0.83630000  1.0
  C  C89  1  0.79630000  0.45040000  0.74860000  1.0
  C  C90  1  0.72570000  0.47000000  0.70740000  1.0
  C  C91  1  0.69700000  0.45170000  0.93210000  1.0
  C  C92  1  0.64720000  0.28420000  0.72120000  1.0
  C  C93  1  0.57380000  0.32990000  0.63070000  1.0
  C  C94  1  0.51480000  0.39520000  0.70240000  1.0
  C  C95  1  0.42020000  0.48630000  0.72290000  1.0
  C  C96  1  0.56300000  0.32090000  0.55030000  1.0
  C  C97  1  0.36050000  0.24140000  0.58480000  1.0
  C  C98  1  0.22840000  0.33630000  0.55550000  1.0
  C  C99  1  0.24670000  0.24860000  0.54960000  1.0
  C  C100  1  0.19570000  0.20740000  0.53000000  1.0
  C  C101  1  0.14870000  0.43210000  0.54830000  1.0
  C  C102  1  0.15260000  0.21580000  0.77880000  1.0
  C  C103  1  0.03440000  0.17010000  0.86930000  1.0
  C  C104  1  0.11240000  0.10480000  0.79760000  1.0
  C  C105  1  0.12940000  0.01370000  0.77710000  1.0
  C  C106  1  0.93420000  0.17910000  0.94970000  1.0
  C  C107  1  0.68670000  0.25860000  0.91520000  1.0
  C  C108  1  0.62020000  0.16370000  0.94450000  1.0
  C  C109  1  0.54490000  0.25140000  0.95040000  1.0
  C  C110  1  0.43310000  0.29260000  0.97000000  1.0
  C  C111  1  0.62910000  0.06790000  0.95170000  1.0
  N  N112  1  0.07340000  0.74000000  0.36460000  1.0
  N  N113  1  0.08130000  0.85680000  0.25880000  1.0
  N  N114  1  0.36830000  0.91780000  0.33220000  1.0
  N  N115  1  0.48230000  0.93130000  0.18510000  1.0
  N  N116  1  0.67800000  0.76000000  0.13540000  1.0
  N  N117  1  0.69690000  0.64320000  0.24120000  1.0
  N  N118  1  0.11830000  0.58220000  0.16780000  1.0
  N  N119  1  0.09870000  0.56870000  0.31490000  1.0
  N  N120  1  0.43800000  0.63540000  0.24000000  1.0
  N  N121  1  0.34010000  0.74120000  0.35680000  1.0
  N  N122  1  0.70050000  0.66780000  0.41780000  1.0
  N  N123  1  0.66740000  0.81490000  0.43130000  1.0
  N  N124  1  0.81340000  0.86460000  0.26000000  1.0
  N  N125  1  0.93810000  0.75880000  0.14320000  1.0
  N  N126  1  0.28610000  0.83220000  0.08220000  1.0
  N  N127  1  0.41360000  0.68510000  0.06870000  1.0
  N  N128  1  0.92660000  0.26000000  0.63540000  1.0
  N  N129  1  0.91870000  0.14320000  0.74120000  1.0
  N  N130  1  0.63170000  0.08220000  0.66780000  1.0
  N  N131  1  0.51770000  0.06870000  0.81490000  1.0
  N  N132  1  0.32200000  0.24000000  0.86460000  1.0
  N  N133  1  0.30310000  0.35680000  0.75880000  1.0
  N  N134  1  0.88170000  0.41780000  0.83220000  1.0
  N  N135  1  0.90130000  0.43130000  0.68510000  1.0
  N  N136  1  0.56200000  0.36460000  0.76000000  1.0
  N  N137  1  0.65990000  0.25880000  0.64320000  1.0
  N  N138  1  0.29950000  0.33220000  0.58220000  1.0
  N  N139  1  0.33260000  0.18510000  0.56870000  1.0
  N  N140  1  0.18660000  0.13540000  0.74000000  1.0
  N  N141  1  0.06190000  0.24120000  0.85680000  1.0
  N  N142  1  0.71390000  0.16780000  0.91780000  1.0
  N  N143  1  0.58640000  0.31490000  0.93130000  1.0
  O  O144  1  0.07300000  0.70900000  0.53060000  1.0
  O  O145  1  0.11400000  0.82130000  0.51970000  1.0
  O  O146  1  0.15170000  0.95430000  0.37150000  1.0
  O  O147  1  0.09770000  0.00960000  0.26020000  1.0
  O  O148  1  0.65340000  0.95790000  0.11790000  1.0
  O  O149  1  0.61800000  0.99610000  0.25670000  1.0
  O  O150  1  0.46870000  0.98420000  0.44400000  1.0
  O  O151  1  0.34940000  0.93010000  0.50010000  1.0
  O  O152  1  0.81260000  0.79100000  0.96940000  1.0
  O  O153  1  0.95500000  0.67870000  0.98030000  1.0
  O  O154  1  0.97750000  0.54570000  0.12850000  1.0
  O  O155  1  0.86750000  0.49040000  0.23980000  1.0
  O  O156  1  0.22920000  0.54210000  0.38210000  1.0
  O  O157  1  0.37080000  0.50390000  0.24330000  1.0
  O  O158  1  0.39690000  0.51580000  0.05600000  1.0
  O  O159  1  0.27960000  0.56990000  0.99990000  1.0
  O  O160  1  0.60360000  0.46940000  0.20900000  1.0
  O  O161  1  0.63370000  0.48030000  0.32130000  1.0
  O  O162  1  0.52320000  0.62850000  0.45430000  1.0
  O  O163  1  0.35790000  0.73980000  0.50960000  1.0
  O  O164  1  0.77130000  0.88210000  0.45790000  1.0
  O  O165  1  0.87470000  0.74330000  0.49610000  1.0
  O  O166  1  0.91270000  0.55600000  0.48420000  1.0
  O  O167  1  0.84950000  0.49990000  0.43010000  1.0
  O  O168  1  0.78200000  0.03060000  0.29100000  1.0
  O  O169  1  0.93530000  0.01970000  0.17870000  1.0
  O  O170  1  0.10600000  0.87150000  0.04570000  1.0
  O  O171  1  0.10730000  0.76020000  0.99040000  1.0
  O  O172  1  0.61130000  0.61790000  0.04210000  1.0
  O  O173  1  0.61410000  0.75670000  0.00390000  1.0
  O  O174  1  0.45290000  0.94400000  0.01580000  1.0
  O  O175  1  0.27950000  0.00010000  0.06990000  1.0
  O  O176  1  0.92700000  0.29100000  0.46940000  1.0
  O  O177  1  0.88600000  0.17870000  0.48030000  1.0
  O  O178  1  0.84830000  0.04570000  0.62850000  1.0
  O  O179  1  0.90230000  0.99040000  0.73980000  1.0
  O  O180  1  0.34660000  0.04210000  0.88210000  1.0
  O  O181  1  0.38200000  0.00390000  0.74330000  1.0
  O  O182  1  0.53130000  0.01580000  0.55600000  1.0
  O  O183  1  0.65060000  0.06990000  0.49990000  1.0
  O  O184  1  0.18740000  0.20900000  0.03060000  1.0
  O  O185  1  0.04500000  0.32130000  0.01970000  1.0
  O  O186  1  0.02250000  0.45430000  0.87150000  1.0
  O  O187  1  0.13250000  0.50960000  0.76020000  1.0
  O  O188  1  0.77080000  0.45790000  0.61790000  1.0
  O  O189  1  0.62920000  0.49610000  0.75670000  1.0
  O  O190  1  0.60310000  0.48420000  0.94400000  1.0
  O  O191  1  0.72040000  0.43010000  0.00010000  1.0
  O  O192  1  0.39640000  0.53060000  0.79100000  1.0
  O  O193  1  0.36630000  0.51970000  0.67870000  1.0
  O  O194  1  0.47680000  0.37150000  0.54570000  1.0
  O  O195  1  0.64210000  0.26020000  0.49040000  1.0
  O  O196  1  0.22870000  0.11790000  0.54210000  1.0
  O  O197  1  0.12530000  0.25670000  0.50390000  1.0
  O  O198  1  0.08730000  0.44400000  0.51580000  1.0
  O  O199  1  0.15050000  0.50010000  0.56990000  1.0
  O  O200  1  0.21800000  0.96940000  0.70900000  1.0
  O  O201  1  0.06470000  0.98030000  0.82130000  1.0
  O  O202  1  0.89400000  0.12850000  0.95430000  1.0
  O  O203  1  0.89270000  0.23980000  0.00960000  1.0
  O  O204  1  0.38870000  0.38210000  0.95790000  1.0
  O  O205  1  0.38590000  0.24330000  0.99610000  1.0
  O  O206  1  0.54710000  0.05600000  0.98420000  1.0
  O  O207  1  0.72050000  0.99990000  0.93010000  1.0
