# generated using pymatgen
data_ZnH3(CO2)3
_symmetry_space_group_name_H-M   'P 1'
_cell_length_a   8.71700000
_cell_length_b   11.61700000
_cell_length_c   8.28900000
_cell_angle_alpha   90.00000000
_cell_angle_beta   90.00000000
_cell_angle_gamma   90.00000000
_symmetry_Int_Tables_number   1
_chemical_formula_structural   ZnH3(CO2)3
_chemical_formula_sum   'Zn4 H12 C12 O24'
_cell_volume   839.38880942
_cell_formula_units_Z   4
loop_
 _symmetry_equiv_pos_site_id
 _symmetry_equiv_pos_as_xyz
  1  'x, y, z'
loop_
 _atom_site_type_symbol
 _atom_site_label
 _atom_site_symmetry_multiplicity
 _atom_site_fract_x
 _atom_site_fract_y
 _atom_site_fract_z
 _atom_site_occupancy
  Zn  Zn0  1  0.23547000  0.25000000  0.25000000  1.0
  Zn  Zn1  1  0.26453000  0.75000000  0.25000000  1.0
  Zn  Zn2  1  0.76453000  0.75000000  0.75000000  1.0
  Zn  Zn3  1  0.73547000  0.25000000  0.75000000  1.0
  H  H4  1  0.42500000  0.21300000  0.93800000  1.0
  H  H5  1  0.07500000  0.78700000  0.93800000  1.0
  H  H6  1  0.07500000  0.71300000  0.56200000  1.0
  H  H7  1  0.42500000  0.28700000  0.56200000  1.0
  H  H8  1  0.57500000  0.78700000  0.06200000  1.0
  H  H9  1  0.92500000  0.21300000  0.06200000  1.0
  H  H10  1  0.92500000  0.28700000  0.43800000  1.0
  H  H11  1  0.57500000  0.71300000  0.43800000  1.0
  H  H12  1  0.25000000  0.50000000  0.19000000  1.0
  H  H13  1  0.25000000  0.00000000  0.31000000  1.0
  H  H14  1  0.75000000  0.50000000  0.81000000  1.0
  H  H15  1  0.75000000  0.00000000  0.69000000  1.0
  C  C16  1  0.47011000  0.28029000  0.97767000  1.0
  C  C17  1  0.02989000  0.71971000  0.97767000  1.0
  C  C18  1  0.02989000  0.78029000  0.52233000  1.0
  C  C19  1  0.47011000  0.21971000  0.52233000  1.0
  C  C20  1  0.52989000  0.71971000  0.02233000  1.0
  C  C21  1  0.97011000  0.28029000  0.02233000  1.0
  C  C22  1  0.97011000  0.21971000  0.47767000  1.0
  C  C23  1  0.52989000  0.78029000  0.47767000  1.0
  C  C24  1  0.25000000  0.50000000  0.31394000  1.0
  C  C25  1  0.25000000  0.00000000  0.18606000  1.0
  C  C26  1  0.75000000  0.50000000  0.68606000  1.0
  C  C27  1  0.75000000  0.00000000  0.81394000  1.0
  O  O28  1  0.41277000  0.31678000  0.10538000  1.0
  O  O29  1  0.08376000  0.17654000  0.41138000  1.0
  O  O30  1  0.23734000  0.40508000  0.38366000  1.0
  O  O31  1  0.08723000  0.68322000  0.10538000  1.0
  O  O32  1  0.41624000  0.82346000  0.41138000  1.0
  O  O33  1  0.26266000  0.59492000  0.38366000  1.0
  O  O34  1  0.08723000  0.81678000  0.39462000  1.0
  O  O35  1  0.41624000  0.67654000  0.08862000  1.0
  O  O36  1  0.26266000  0.90508000  0.11634000  1.0
  O  O37  1  0.41277000  0.18322000  0.39462000  1.0
  O  O38  1  0.08376000  0.32346000  0.08862000  1.0
  O  O39  1  0.23734000  0.09492000  0.11634000  1.0
  O  O40  1  0.58723000  0.68322000  0.89462000  1.0
  O  O41  1  0.91624000  0.82346000  0.58862000  1.0
  O  O42  1  0.76266000  0.59492000  0.61634000  1.0
  O  O43  1  0.91277000  0.31678000  0.89462000  1.0
  O  O44  1  0.58376000  0.17654000  0.58862000  1.0
  O  O45  1  0.73734000  0.40508000  0.61634000  1.0
  O  O46  1  0.91277000  0.18322000  0.60538000  1.0
  O  O47  1  0.58376000  0.32346000  0.91138000  1.0
  O  O48  1  0.73734000  0.09492000  0.88366000  1.0
  O  O49  1  0.58723000  0.81678000  0.60538000  1.0
  O  O50  1  0.91624000  0.67654000  0.91138000  1.0
  O  O51  1  0.76266000  0.90508000  0.88366000  1.0
