# generated using pymatgen
data_DyH8C12(NO3)3
_symmetry_space_group_name_H-M   'P 1'
_cell_length_a   10.14140000
_cell_length_b   17.39830000
_cell_length_c   11.36460000
_cell_angle_alpha   90.00000000
_cell_angle_beta   110.08500000
_cell_angle_gamma   90.00000000
_symmetry_Int_Tables_number   1
_chemical_formula_structural   DyH8C12(NO3)3
_chemical_formula_sum   'Dy4 H32 C48 N12 O36'
_cell_volume   1883.25728154
_cell_formula_units_Z   4
loop_
 _symmetry_equiv_pos_site_id
 _symmetry_equiv_pos_as_xyz
  1  'x, y, z'
loop_
 _atom_site_type_symbol
 _atom_site_label
 _atom_site_symmetry_multiplicity
 _atom_site_fract_x
 _atom_site_fract_y
 _atom_site_fract_z
 _atom_site_occupancy
  Dy  Dy0  1  0.50947000  0.50704000  0.68128000  1.0
  Dy  Dy1  1  0.49053000  0.00704000  0.81872000  1.0
  Dy  Dy2  1  0.49053000  0.49296000  0.31872000  1.0
  Dy  Dy3  1  0.50947000  0.99296000  0.18128000  1.0
  H  H4  1  0.17510000  0.37450000  0.52520000  1.0
  H  H5  1  0.59860000  0.71520000  0.13650000  1.0
  H  H6  1  0.98220000  0.49020000  0.79120000  1.0
  H  H7  1  0.41000000  0.81600000  0.80350000  1.0
  H  H8  1  0.93610000  0.39250000  0.45990000  1.0
  H  H9  1  0.35440000  0.69670000  0.71350000  1.0
  H  H10  1  0.22030000  0.47640000  0.84660000  1.0
  H  H11  1  0.54910000  0.59730000  0.03990000  1.0
  H  H12  1  0.82490000  0.87450000  0.97480000  1.0
  H  H13  1  0.40140000  0.21520000  0.36350000  1.0
  H  H14  1  0.01780000  0.99020000  0.70880000  1.0
  H  H15  1  0.59000000  0.31600000  0.69650000  1.0
  H  H16  1  0.06390000  0.89250000  0.04010000  1.0
  H  H17  1  0.64560000  0.19670000  0.78650000  1.0
  H  H18  1  0.77970000  0.97640000  0.65340000  1.0
  H  H19  1  0.45090000  0.09730000  0.46010000  1.0
  H  H20  1  0.82490000  0.62550000  0.47480000  1.0
  H  H21  1  0.40140000  0.28480000  0.86350000  1.0
  H  H22  1  0.01780000  0.50980000  0.20880000  1.0
  H  H23  1  0.59000000  0.18400000  0.19650000  1.0
  H  H24  1  0.06390000  0.60750000  0.54010000  1.0
  H  H25  1  0.64560000  0.30330000  0.28650000  1.0
  H  H26  1  0.77970000  0.52360000  0.15340000  1.0
  H  H27  1  0.45090000  0.40270000  0.96010000  1.0
  H  H28  1  0.17510000  0.12550000  0.02520000  1.0
  H  H29  1  0.59860000  0.78480000  0.63650000  1.0
  H  H30  1  0.98220000  0.00980000  0.29120000  1.0
  H  H31  1  0.41000000  0.68400000  0.30350000  1.0
  H  H32  1  0.93610000  0.10750000  0.95990000  1.0
  H  H33  1  0.35440000  0.80330000  0.21350000  1.0
  H  H34  1  0.22030000  0.02360000  0.34660000  1.0
  H  H35  1  0.54910000  0.90270000  0.53990000  1.0
  C  C36  1  0.13530000  0.39940000  0.57730000  1.0
  C  C37  1  0.53730000  0.85670000  0.04280000  1.0
  C  C38  1  0.55110000  0.71210000  0.05060000  1.0
  C  C39  1  0.02000000  0.46840000  0.73510000  1.0
  C  C40  1  0.43760000  0.77210000  0.85260000  1.0
  C  C41  1  0.99250000  0.40960000  0.53870000  1.0
  C  C42  1  0.77640000  0.46240000  0.57410000  1.0
  C  C43  1  0.93180000  0.44550000  0.61710000  1.0
  C  C44  1  0.40510000  0.70100000  0.79860000  1.0
  C  C45  1  0.51140000  0.77910000  0.97960000  1.0
  C  C46  1  0.16180000  0.45920000  0.76880000  1.0
  C  C47  1  0.51970000  0.64190000  0.99310000  1.0
  C  C48  1  0.86470000  0.89940000  0.92270000  1.0
  C  C49  1  0.46270000  0.35670000  0.45720000  1.0
  C  C50  1  0.44890000  0.21210000  0.44940000  1.0
  C  C51  1  0.98000000  0.96840000  0.76490000  1.0
  C  C52  1  0.56240000  0.27210000  0.64740000  1.0
  C  C53  1  0.00750000  0.90960000  0.96130000  1.0
  C  C54  1  0.22360000  0.96240000  0.92590000  1.0
  C  C55  1  0.06820000  0.94550000  0.88290000  1.0
  C  C56  1  0.59490000  0.20100000  0.70140000  1.0
  C  C57  1  0.48860000  0.27910000  0.52040000  1.0
  C  C58  1  0.83820000  0.95920000  0.73120000  1.0
  C  C59  1  0.48030000  0.14190000  0.50690000  1.0
  C  C60  1  0.86470000  0.60060000  0.42270000  1.0
  C  C61  1  0.46270000  0.14330000  0.95720000  1.0
  C  C62  1  0.44890000  0.28790000  0.94940000  1.0
  C  C63  1  0.98000000  0.53160000  0.26490000  1.0
  C  C64  1  0.56240000  0.22790000  0.14740000  1.0
  C  C65  1  0.00750000  0.59040000  0.46130000  1.0
  C  C66  1  0.22360000  0.53760000  0.42590000  1.0
  C  C67  1  0.06820000  0.55450000  0.38290000  1.0
  C  C68  1  0.59490000  0.29900000  0.20140000  1.0
  C  C69  1  0.48860000  0.22090000  0.02040000  1.0
  C  C70  1  0.83820000  0.54080000  0.23120000  1.0
  C  C71  1  0.48030000  0.35810000  0.00690000  1.0
  C  C72  1  0.13530000  0.10060000  0.07730000  1.0
  C  C73  1  0.53730000  0.64330000  0.54280000  1.0
  C  C74  1  0.55110000  0.78790000  0.55060000  1.0
  C  C75  1  0.02000000  0.03160000  0.23510000  1.0
  C  C76  1  0.43760000  0.72790000  0.35260000  1.0
  C  C77  1  0.99250000  0.09040000  0.03870000  1.0
  C  C78  1  0.77640000  0.03760000  0.07410000  1.0
  C  C79  1  0.93180000  0.05450000  0.11710000  1.0
  C  C80  1  0.40510000  0.79900000  0.29860000  1.0
  C  C81  1  0.51140000  0.72090000  0.47960000  1.0
  C  C82  1  0.16180000  0.04080000  0.26880000  1.0
  C  C83  1  0.51970000  0.85810000  0.49310000  1.0
  N  N84  1  0.73100000  0.46960000  0.90790000  1.0
  N  N85  1  0.44680000  0.63686000  0.86960000  1.0
  N  N86  1  0.21800000  0.42520000  0.69020000  1.0
  N  N87  1  0.26900000  0.96960000  0.59210000  1.0
  N  N88  1  0.55320000  0.13686000  0.63040000  1.0
  N  N89  1  0.78200000  0.92520000  0.80980000  1.0
  N  N90  1  0.26900000  0.53040000  0.09210000  1.0
  N  N91  1  0.55320000  0.36314000  0.13040000  1.0
  N  N92  1  0.78200000  0.57480000  0.30980000  1.0
  N  N93  1  0.73100000  0.03040000  0.40790000  1.0
  N  N94  1  0.44680000  0.86314000  0.36960000  1.0
  N  N95  1  0.21800000  0.07480000  0.19020000  1.0
  O  O96  1  0.72830000  0.48579000  0.65570000  1.0
  O  O97  1  0.70280000  0.53865000  0.87940000  1.0
  O  O98  1  0.70870000  0.45292000  0.45870000  1.0
  O  O99  1  0.35670000  0.41743000  0.72510000  1.0
  O  O100  1  0.41190000  0.56798000  0.81690000  1.0
  O  O101  1  0.56040000  0.86074000  0.15740000  1.0
  O  O102  1  0.52610000  0.91584000  0.97480000  1.0
  O  O103  1  0.64640000  0.41826000  0.84410000  1.0
  O  O104  1  0.83700000  0.45180000  0.99580000  1.0
  O  O105  1  0.27170000  0.98579000  0.84430000  1.0
  O  O106  1  0.29720000  0.03865000  0.62060000  1.0
  O  O107  1  0.29130000  0.95292000  0.04130000  1.0
  O  O108  1  0.64330000  0.91743000  0.77490000  1.0
  O  O109  1  0.58810000  0.06798000  0.68310000  1.0
  O  O110  1  0.43960000  0.36074000  0.34260000  1.0
  O  O111  1  0.47390000  0.41584000  0.52520000  1.0
  O  O112  1  0.35360000  0.91826000  0.65590000  1.0
  O  O113  1  0.16300000  0.95180000  0.50420000  1.0
  O  O114  1  0.27170000  0.51421000  0.34430000  1.0
  O  O115  1  0.29720000  0.46135000  0.12060000  1.0
  O  O116  1  0.29130000  0.54708000  0.54130000  1.0
  O  O117  1  0.64330000  0.58257000  0.27490000  1.0
  O  O118  1  0.58810000  0.43202000  0.18310000  1.0
  O  O119  1  0.43960000  0.13926000  0.84260000  1.0
  O  O120  1  0.47390000  0.08416000  0.02520000  1.0
  O  O121  1  0.35360000  0.58174000  0.15590000  1.0
  O  O122  1  0.16300000  0.54820000  0.00420000  1.0
  O  O123  1  0.72830000  0.01421000  0.15570000  1.0
  O  O124  1  0.70280000  0.96135000  0.37940000  1.0
  O  O125  1  0.70870000  0.04708000  0.95870000  1.0
  O  O126  1  0.35670000  0.08257000  0.22510000  1.0
  O  O127  1  0.41190000  0.93202000  0.31690000  1.0
  O  O128  1  0.56040000  0.63926000  0.65740000  1.0
  O  O129  1  0.52610000  0.58416000  0.47480000  1.0
  O  O130  1  0.64640000  0.08174000  0.34410000  1.0
  O  O131  1  0.83700000  0.04820000  0.49580000  1.0
