# generated using pymatgen
data_ZnCoH2(C5O4)2
_symmetry_space_group_name_H-M   'P 1'
_cell_length_a   11.76030000
_cell_length_b   18.71070000
_cell_length_c   18.71070000
_cell_angle_alpha   90.00000000
_cell_angle_beta   90.00000000
_cell_angle_gamma   90.00000000
_symmetry_Int_Tables_number   1
_chemical_formula_structural   ZnCoH2(C5O4)2
_chemical_formula_sum   'Zn8 Co8 H16 C80 O64'
_cell_volume   4117.16689029
_cell_formula_units_Z   8
loop_
 _symmetry_equiv_pos_site_id
 _symmetry_equiv_pos_as_xyz
  1  'x, y, z'
loop_
 _atom_site_type_symbol
 _atom_site_label
 _atom_site_symmetry_multiplicity
 _atom_site_fract_x
 _atom_site_fract_y
 _atom_site_fract_z
 _atom_site_occupancy
  Zn  Zn0  1  0.64386000  0.28571000  0.78162000  1.0
  Zn  Zn1  1  0.64386000  0.71429000  0.21838000  1.0
  Zn  Zn2  1  0.14386000  0.21838000  0.28571000  1.0
  Zn  Zn3  1  0.14386000  0.78162000  0.71429000  1.0
  Zn  Zn4  1  0.64386000  0.78571000  0.71838000  1.0
  Zn  Zn5  1  0.64386000  0.21429000  0.28162000  1.0
  Zn  Zn6  1  0.14386000  0.71838000  0.21429000  1.0
  Zn  Zn7  1  0.14386000  0.28162000  0.78571000  1.0
  Co  Co8  1  0.81794000  0.15389000  0.82168000  1.0
  Co  Co9  1  0.81794000  0.84611000  0.17832000  1.0
  Co  Co10  1  0.31794000  0.17832000  0.15389000  1.0
  Co  Co11  1  0.31794000  0.82168000  0.84611000  1.0
  Co  Co12  1  0.81794000  0.65389000  0.67832000  1.0
  Co  Co13  1  0.81794000  0.34611000  0.32168000  1.0
  Co  Co14  1  0.31794000  0.67832000  0.34611000  1.0
  Co  Co15  1  0.31794000  0.32168000  0.65389000  1.0
  H  H16  1  0.08980000  0.27170000  0.50870000  1.0
  H  H17  1  0.70980000  0.22100000  0.55670000  1.0
  H  H18  1  0.08980000  0.72830000  0.49130000  1.0
  H  H19  1  0.70980000  0.77900000  0.44330000  1.0
  H  H20  1  0.58980000  0.49130000  0.27170000  1.0
  H  H21  1  0.20980000  0.44330000  0.22100000  1.0
  H  H22  1  0.58980000  0.50870000  0.72830000  1.0
  H  H23  1  0.20980000  0.55670000  0.77900000  1.0
  H  H24  1  0.08980000  0.77170000  0.99130000  1.0
  H  H25  1  0.70980000  0.72100000  0.94330000  1.0
  H  H26  1  0.08980000  0.22830000  0.00870000  1.0
  H  H27  1  0.70980000  0.27900000  0.05670000  1.0
  H  H28  1  0.58980000  0.99130000  0.22830000  1.0
  H  H29  1  0.20980000  0.94330000  0.27900000  1.0
  H  H30  1  0.58980000  0.00870000  0.77170000  1.0
  H  H31  1  0.20980000  0.05670000  0.72100000  1.0
  C  C32  1  0.81010000  0.24090000  0.67830000  1.0
  C  C33  1  0.85940000  0.24580000  0.60470000  1.0
  C  C34  1  0.97150000  0.26200000  0.58870000  1.0
  C  C35  1  0.01190000  0.26210000  0.51800000  1.0
  C  C36  1  0.93900000  0.24820000  0.46240000  1.0
  C  C37  1  0.82290000  0.23320000  0.47550000  1.0
  C  C38  1  0.78710000  0.23190000  0.54700000  1.0
  C  C39  1  0.05770000  0.28210000  0.64480000  1.0
  C  C40  1  0.99250000  0.25180000  0.38940000  1.0
  C  C41  1  0.73330000  0.22080000  0.41990000  1.0
  C  C42  1  0.81010000  0.75910000  0.32170000  1.0
  C  C43  1  0.85940000  0.75420000  0.39530000  1.0
  C  C44  1  0.97150000  0.73800000  0.41130000  1.0
  C  C45  1  0.01190000  0.73790000  0.48200000  1.0
  C  C46  1  0.93900000  0.75180000  0.53760000  1.0
  C  C47  1  0.82290000  0.76680000  0.52450000  1.0
  C  C48  1  0.78710000  0.76810000  0.45300000  1.0
  C  C49  1  0.05770000  0.71790000  0.35520000  1.0
  C  C50  1  0.99250000  0.74820000  0.61060000  1.0
  C  C51  1  0.73330000  0.77920000  0.58010000  1.0
  C  C52  1  0.31010000  0.32170000  0.24090000  1.0
  C  C53  1  0.35940000  0.39530000  0.24580000  1.0
  C  C54  1  0.47150000  0.41130000  0.26200000  1.0
  C  C55  1  0.51190000  0.48200000  0.26210000  1.0
  C  C56  1  0.43900000  0.53760000  0.24820000  1.0
  C  C57  1  0.32290000  0.52450000  0.23320000  1.0
  C  C58  1  0.28710000  0.45300000  0.23190000  1.0
  C  C59  1  0.55770000  0.35520000  0.28210000  1.0
  C  C60  1  0.49250000  0.61060000  0.25180000  1.0
  C  C61  1  0.23330000  0.58010000  0.22080000  1.0
  C  C62  1  0.31010000  0.67830000  0.75910000  1.0
  C  C63  1  0.35940000  0.60470000  0.75420000  1.0
  C  C64  1  0.47150000  0.58870000  0.73800000  1.0
  C  C65  1  0.51190000  0.51800000  0.73790000  1.0
  C  C66  1  0.43900000  0.46240000  0.75180000  1.0
  C  C67  1  0.32290000  0.47550000  0.76680000  1.0
  C  C68  1  0.28710000  0.54700000  0.76810000  1.0
  C  C69  1  0.55770000  0.64480000  0.71790000  1.0
  C  C70  1  0.49250000  0.38940000  0.74820000  1.0
  C  C71  1  0.23330000  0.41990000  0.77920000  1.0
  C  C72  1  0.81010000  0.74090000  0.82170000  1.0
  C  C73  1  0.85940000  0.74580000  0.89530000  1.0
  C  C74  1  0.97150000  0.76200000  0.91130000  1.0
  C  C75  1  0.01190000  0.76210000  0.98200000  1.0
  C  C76  1  0.93900000  0.74820000  0.03760000  1.0
  C  C77  1  0.82290000  0.73320000  0.02450000  1.0
  C  C78  1  0.78710000  0.73190000  0.95300000  1.0
  C  C79  1  0.05770000  0.78210000  0.85520000  1.0
  C  C80  1  0.99250000  0.75180000  0.11060000  1.0
  C  C81  1  0.73330000  0.72080000  0.08010000  1.0
  C  C82  1  0.81010000  0.25910000  0.17830000  1.0
  C  C83  1  0.85940000  0.25420000  0.10470000  1.0
  C  C84  1  0.97150000  0.23800000  0.08870000  1.0
  C  C85  1  0.01190000  0.23790000  0.01800000  1.0
  C  C86  1  0.93900000  0.25180000  0.96240000  1.0
  C  C87  1  0.82290000  0.26680000  0.97550000  1.0
  C  C88  1  0.78710000  0.26810000  0.04700000  1.0
  C  C89  1  0.05770000  0.21790000  0.14480000  1.0
  C  C90  1  0.99250000  0.24820000  0.88940000  1.0
  C  C91  1  0.73330000  0.27920000  0.91990000  1.0
  C  C92  1  0.31010000  0.82170000  0.25910000  1.0
  C  C93  1  0.35940000  0.89530000  0.25420000  1.0
  C  C94  1  0.47150000  0.91130000  0.23800000  1.0
  C  C95  1  0.51190000  0.98200000  0.23790000  1.0
  C  C96  1  0.43900000  0.03760000  0.25180000  1.0
  C  C97  1  0.32290000  0.02450000  0.26680000  1.0
  C  C98  1  0.28710000  0.95300000  0.26810000  1.0
  C  C99  1  0.55770000  0.85520000  0.21790000  1.0
  C  C100  1  0.49250000  0.11060000  0.24820000  1.0
  C  C101  1  0.23330000  0.08010000  0.27920000  1.0
  C  C102  1  0.31010000  0.17830000  0.74090000  1.0
  C  C103  1  0.35940000  0.10470000  0.74580000  1.0
  C  C104  1  0.47150000  0.08870000  0.76200000  1.0
  C  C105  1  0.51190000  0.01800000  0.76210000  1.0
  C  C106  1  0.43900000  0.96240000  0.74820000  1.0
  C  C107  1  0.32290000  0.97550000  0.73320000  1.0
  C  C108  1  0.28710000  0.04700000  0.73190000  1.0
  C  C109  1  0.55770000  0.14480000  0.78210000  1.0
  C  C110  1  0.49250000  0.88940000  0.75180000  1.0
  C  C111  1  0.23330000  0.91990000  0.72080000  1.0
  O  O112  1  0.82680000  0.18710000  0.71490000  1.0
  O  O113  1  0.74040000  0.29200000  0.69520000  1.0
  O  O114  1  0.03120000  0.27740000  0.70900000  1.0
  O  O115  1  0.15310000  0.30530000  0.62260000  1.0
  O  O116  1  0.07300000  0.20750000  0.37950000  1.0
  O  O117  1  0.97130000  0.30210000  0.34540000  1.0
  O  O118  1  0.75980000  0.23740000  0.35440000  1.0
  O  O119  1  0.63880000  0.19960000  0.43540000  1.0
  O  O120  1  0.82680000  0.81290000  0.28510000  1.0
  O  O121  1  0.74040000  0.70800000  0.30480000  1.0
  O  O122  1  0.03120000  0.72260000  0.29100000  1.0
  O  O123  1  0.15310000  0.69470000  0.37740000  1.0
  O  O124  1  0.07300000  0.79250000  0.62050000  1.0
  O  O125  1  0.97130000  0.69790000  0.65460000  1.0
  O  O126  1  0.75980000  0.76260000  0.64560000  1.0
  O  O127  1  0.63880000  0.80040000  0.56460000  1.0
  O  O128  1  0.32680000  0.28510000  0.18710000  1.0
  O  O129  1  0.24040000  0.30480000  0.29200000  1.0
  O  O130  1  0.53120000  0.29100000  0.27740000  1.0
  O  O131  1  0.65310000  0.37740000  0.30530000  1.0
  O  O132  1  0.57300000  0.62050000  0.20750000  1.0
  O  O133  1  0.47130000  0.65460000  0.30210000  1.0
  O  O134  1  0.25980000  0.64560000  0.23740000  1.0
  O  O135  1  0.13880000  0.56460000  0.19960000  1.0
  O  O136  1  0.32680000  0.71490000  0.81290000  1.0
  O  O137  1  0.24040000  0.69520000  0.70800000  1.0
  O  O138  1  0.53120000  0.70900000  0.72260000  1.0
  O  O139  1  0.65310000  0.62260000  0.69470000  1.0
  O  O140  1  0.57300000  0.37950000  0.79250000  1.0
  O  O141  1  0.47130000  0.34540000  0.69790000  1.0
  O  O142  1  0.25980000  0.35440000  0.76260000  1.0
  O  O143  1  0.13880000  0.43540000  0.80040000  1.0
  O  O144  1  0.82680000  0.68710000  0.78510000  1.0
  O  O145  1  0.74040000  0.79200000  0.80480000  1.0
  O  O146  1  0.03120000  0.77740000  0.79100000  1.0
  O  O147  1  0.15310000  0.80530000  0.87740000  1.0
  O  O148  1  0.07300000  0.70750000  0.12050000  1.0
  O  O149  1  0.97130000  0.80210000  0.15460000  1.0
  O  O150  1  0.75980000  0.73740000  0.14560000  1.0
  O  O151  1  0.63880000  0.69960000  0.06460000  1.0
  O  O152  1  0.82680000  0.31290000  0.21490000  1.0
  O  O153  1  0.74040000  0.20800000  0.19520000  1.0
  O  O154  1  0.03120000  0.22260000  0.20900000  1.0
  O  O155  1  0.15310000  0.19470000  0.12260000  1.0
  O  O156  1  0.07300000  0.29250000  0.87950000  1.0
  O  O157  1  0.97130000  0.19790000  0.84540000  1.0
  O  O158  1  0.75980000  0.26260000  0.85440000  1.0
  O  O159  1  0.63880000  0.30040000  0.93540000  1.0
  O  O160  1  0.32680000  0.78510000  0.31290000  1.0
  O  O161  1  0.24040000  0.80480000  0.20800000  1.0
  O  O162  1  0.53120000  0.79100000  0.22260000  1.0
  O  O163  1  0.65310000  0.87740000  0.19470000  1.0
  O  O164  1  0.57300000  0.12050000  0.29250000  1.0
  O  O165  1  0.47130000  0.15460000  0.19790000  1.0
  O  O166  1  0.25980000  0.14560000  0.26260000  1.0
  O  O167  1  0.13880000  0.06460000  0.30040000  1.0
  O  O168  1  0.32680000  0.21490000  0.68710000  1.0
  O  O169  1  0.24040000  0.19520000  0.79200000  1.0
  O  O170  1  0.53120000  0.20900000  0.77740000  1.0
  O  O171  1  0.65310000  0.12260000  0.80530000  1.0
  O  O172  1  0.57300000  0.87950000  0.70750000  1.0
  O  O173  1  0.47130000  0.84540000  0.80210000  1.0
  O  O174  1  0.25980000  0.85440000  0.73740000  1.0
  O  O175  1  0.13880000  0.93540000  0.69960000  1.0
