# generated using pymatgen
data_Zn5H48C69(N3O2)6
_symmetry_space_group_name_H-M   'P 1'
_cell_length_a   21.31700000
_cell_length_b   23.14790000
_cell_length_c   38.65880000
_cell_angle_alpha   79.56820000
_cell_angle_beta   73.99580000
_cell_angle_gamma   62.58370000
_symmetry_Int_Tables_number   1
_chemical_formula_structural   Zn5H48C69(N3O2)6
_chemical_formula_sum   'Zn20 H192 C276 N72 O48'
_cell_volume   16244.33810321
_cell_formula_units_Z   4
loop_
 _symmetry_equiv_pos_site_id
 _symmetry_equiv_pos_as_xyz
  1  'x, y, z'
loop_
 _atom_site_type_symbol
 _atom_site_label
 _atom_site_symmetry_multiplicity
 _atom_site_fract_x
 _atom_site_fract_y
 _atom_site_fract_z
 _atom_site_occupancy
  Zn  Zn0  1  0.34884000  0.48474000  0.42220000  1.0
  Zn  Zn1  1  0.30684000  0.45794000  0.51772000  1.0
  Zn  Zn2  1  0.46927000  0.32719000  0.38331000  1.0
  Zn  Zn3  1  0.43752000  0.58951000  0.39772000  1.0
  Zn  Zn4  1  0.18034000  0.55974000  0.39026000  1.0
  Zn  Zn5  1  0.74422000  0.98474000  0.92220000  1.0
  Zn  Zn6  1  0.71750000  0.95794000  0.01772000  1.0
  Zn  Zn7  1  0.82023000  0.82719000  0.88331000  1.0
  Zn  Zn8  1  0.57525000  0.08951000  0.89772000  1.0
  Zn  Zn9  1  0.86966000  0.05974000  0.89026000  1.0
  Zn  Zn10  1  0.25578000  0.01526000  0.07780000  1.0
  Zn  Zn11  1  0.28250000  0.04206000  0.98228000  1.0
  Zn  Zn12  1  0.17977000  0.17281000  0.11669000  1.0
  Zn  Zn13  1  0.42475000  0.91049000  0.10228000  1.0
  Zn  Zn14  1  0.13034000  0.94026000  0.10974000  1.0
  Zn  Zn15  1  0.65116000  0.51526000  0.57780000  1.0
  Zn  Zn16  1  0.69316000  0.54206000  0.48228000  1.0
  Zn  Zn17  1  0.53073000  0.67281000  0.61669000  1.0
  Zn  Zn18  1  0.56248000  0.41049000  0.60228000  1.0
  Zn  Zn19  1  0.81966000  0.44026000  0.60974000  1.0
  H  H20  1  0.18510000  0.48910000  0.32310000  1.0
  H  H21  1  0.22300000  0.40770000  0.28470000  1.0
  H  H22  1  0.14980000  0.71480000  0.34380000  1.0
  H  H23  1  0.22850000  0.28190000  0.88910000  1.0
  H  H24  1  0.32610000  0.31060000  0.28460000  1.0
  H  H25  1  0.16470000  0.80930000  0.32350000  1.0
  H  H26  1  0.40780000  0.29720000  0.31960000  1.0
  H  H27  1  0.26280000  0.81860000  0.33240000  1.0
  H  H28  1  0.43780000  0.17700000  0.81040000  1.0
  H  H29  1  0.34560000  0.73410000  0.36170000  1.0
  H  H30  1  0.71330000  0.44450000  0.30910000  1.0
  H  H31  1  0.33590000  0.23530000  0.78890000  1.0
  H  H32  1  0.14610000  0.43930000  0.79230000  1.0
  H  H33  1  0.10490000  0.41930000  0.82930000  1.0
  H  H34  1  0.50680000  0.13520000  0.49340000  1.0
  H  H35  1  0.45150000  0.18560000  0.54740000  1.0
  H  H36  1  0.07750000  0.40080000  0.74420000  1.0
  H  H37  1  0.14210000  0.33090000  0.73790000  1.0
  H  H38  1  0.33640000  0.22120000  0.90640000  1.0
  H  H39  1  0.07000000  0.32840000  0.83440000  1.0
  H  H40  1  0.01950000  0.37330000  0.80790000  1.0
  H  H41  1  0.17800000  0.37580000  0.61940000  1.0
  H  H42  1  0.23700000  0.32600000  0.77800000  1.0
  H  H43  1  0.21230000  0.27000000  0.78340000  1.0
  H  H44  1  0.36600000  0.52940000  0.56500000  1.0
  H  H45  1  0.08760000  0.52230000  0.83390000  1.0
  H  H46  1  0.01060000  0.13060000  0.80060000  1.0
  H  H47  1  0.07220000  0.19370000  0.77270000  1.0
  H  H48  1  0.98320000  0.30410000  0.85670000  1.0
  H  H49  1  0.14000000  0.36190000  0.68010000  1.0
  H  H50  1  0.02490000  0.62050000  0.86150000  1.0
  H  H51  1  0.29190000  0.46060000  0.63340000  1.0
  H  H52  1  0.47260000  0.64140000  0.52680000  1.0
  H  H53  1  0.42040000  0.58890000  0.57310000  1.0
  H  H54  1  0.92340000  0.56730000  0.78970000  1.0
  H  H55  1  0.37740000  0.29770000  0.55110000  1.0
  H  H56  1  0.63160000  0.31410000  0.33170000  1.0
  H  H57  1  0.92180000  0.24090000  0.88330000  1.0
  H  H58  1  0.72100000  0.34570000  0.30290000  1.0
  H  H59  1  0.60760000  0.52610000  0.34050000  1.0
  H  H60  1  0.85920000  0.66900000  0.81500000  1.0
  H  H61  1  0.50560000  0.19940000  0.44080000  1.0
  H  H62  1  0.47480000  0.63220000  0.46660000  1.0
  H  H63  1  0.25330000  0.45010000  0.69590000  1.0
  H  H64  1  0.02970000  0.60510000  0.45250000  1.0
  H  H65  1  0.95300000  0.61600000  0.50920000  1.0
  H  H66  1  0.00100000  0.57530000  0.56030000  1.0
  H  H67  1  0.12560000  0.52400000  0.55460000  1.0
  H  H68  1  0.00270000  0.98910000  0.82310000  1.0
  H  H69  1  0.08460000  0.90770000  0.78470000  1.0
  H  H70  1  0.79160000  0.21480000  0.84380000  1.0
  H  H71  1  0.60050000  0.78190000  0.38910000  1.0
  H  H72  1  0.07870000  0.81060000  0.78460000  1.0
  H  H73  1  0.70250000  0.30930000  0.82350000  1.0
  H  H74  1  0.97540000  0.79720000  0.81960000  1.0
  H  H75  1  0.58620000  0.31860000  0.83240000  1.0
  H  H76  1  0.57480000  0.67700000  0.31040000  1.0
  H  H77  1  0.55860000  0.23410000  0.86170000  1.0
  H  H78  1  0.53310000  0.94450000  0.80910000  1.0
  H  H79  1  0.63990000  0.73530000  0.28890000  1.0
  H  H80  1  0.62230000  0.93930000  0.29230000  1.0
  H  H81  1  0.64650000  0.91930000  0.32930000  1.0
  H  H82  1  0.86460000  0.63520000  0.99340000  1.0
  H  H83  1  0.81550000  0.68560000  0.04740000  1.0
  H  H84  1  0.77750000  0.90080000  0.24420000  1.0
  H  H85  1  0.78910000  0.83090000  0.23790000  1.0
  H  H86  1  0.53600000  0.72120000  0.40640000  1.0
  H  H87  1  0.76720000  0.82840000  0.33440000  1.0
  H  H88  1  0.79930000  0.87330000  0.30790000  1.0
  H  H89  1  0.82680000  0.87580000  0.11940000  1.0
  H  H90  1  0.65900000  0.82600000  0.27800000  1.0
  H  H91  1  0.73430000  0.77000000  0.28340000  1.0
  H  H92  1  0.53960000  0.02940000  0.06500000  1.0
  H  H93  1  0.55620000  0.02230000  0.33390000  1.0
  H  H94  1  0.05820000  0.63060000  0.30060000  1.0
  H  H95  1  0.96140000  0.69370000  0.27270000  1.0
  H  H96  1  0.85600000  0.80410000  0.35670000  1.0
  H  H97  1  0.81800000  0.86190000  0.18010000  1.0
  H  H98  1  0.49310000  0.12050000  0.36150000  1.0
  H  H99  1  0.61410000  0.96060000  0.13340000  1.0
  H  H100  1  0.35920000  0.14140000  0.02680000  1.0
  H  H101  1  0.41760000  0.08890000  0.07310000  1.0
  H  H102  1  0.71960000  0.06730000  0.28970000  1.0
  H  H103  1  0.77380000  0.79770000  0.05110000  1.0
  H  H104  1  0.72260000  0.81410000  0.83170000  1.0
  H  H105  1  0.95400000  0.74090000  0.38330000  1.0
  H  H106  1  0.63040000  0.84570000  0.80290000  1.0
  H  H107  1  0.52580000  0.02610000  0.84050000  1.0
  H  H108  1  0.65680000  0.16900000  0.31500000  1.0
  H  H109  1  0.85420000  0.69940000  0.94080000  1.0
  H  H110  1  0.42640000  0.13220000  0.96660000  1.0
  H  H111  1  0.60070000  0.95010000  0.19590000  1.0
  H  H112  1  0.91270000  0.10510000  0.95250000  1.0
  H  H113  1  0.92180000  0.11600000  0.00920000  1.0
  H  H114  1  0.86340000  0.07530000  0.06030000  1.0
  H  H115  1  0.79580000  0.02400000  0.05460000  1.0
  H  H116  1  0.99730000  0.01090000  0.17690000  1.0
  H  H117  1  0.91540000  0.09230000  0.21530000  1.0
  H  H118  1  0.20840000  0.78520000  0.15620000  1.0
  H  H119  1  0.39950000  0.21810000  0.61090000  1.0
  H  H120  1  0.92130000  0.18940000  0.21540000  1.0
  H  H121  1  0.29750000  0.69070000  0.17650000  1.0
  H  H122  1  0.02460000  0.20280000  0.18040000  1.0
  H  H123  1  0.41380000  0.68140000  0.16760000  1.0
  H  H124  1  0.42520000  0.32300000  0.68960000  1.0
  H  H125  1  0.44140000  0.76590000  0.13830000  1.0
  H  H126  1  0.46690000  0.05550000  0.19090000  1.0
  H  H127  1  0.36010000  0.26470000  0.71110000  1.0
  H  H128  1  0.37770000  0.06070000  0.70770000  1.0
  H  H129  1  0.35350000  0.08070000  0.67070000  1.0
  H  H130  1  0.13540000  0.36480000  0.00660000  1.0
  H  H131  1  0.18450000  0.31440000  0.95260000  1.0
  H  H132  1  0.22250000  0.09920000  0.75580000  1.0
  H  H133  1  0.21090000  0.16910000  0.76210000  1.0
  H  H134  1  0.46400000  0.27880000  0.59360000  1.0
  H  H135  1  0.23280000  0.17160000  0.66560000  1.0
  H  H136  1  0.20070000  0.12670000  0.69210000  1.0
  H  H137  1  0.17320000  0.12420000  0.88060000  1.0
  H  H138  1  0.34100000  0.17400000  0.72200000  1.0
  H  H139  1  0.26570000  0.23000000  0.71660000  1.0
  H  H140  1  0.46040000  0.97060000  0.93500000  1.0
  H  H141  1  0.44380000  0.97770000  0.66610000  1.0
  H  H142  1  0.94180000  0.36940000  0.69940000  1.0
  H  H143  1  0.03860000  0.30630000  0.72730000  1.0
  H  H144  1  0.14400000  0.19590000  0.64330000  1.0
  H  H145  1  0.18200000  0.13810000  0.81990000  1.0
  H  H146  1  0.50690000  0.87950000  0.63850000  1.0
  H  H147  1  0.38590000  0.03940000  0.86660000  1.0
  H  H148  1  0.64080000  0.85860000  0.97320000  1.0
  H  H149  1  0.58240000  0.91110000  0.92690000  1.0
  H  H150  1  0.28040000  0.93270000  0.71030000  1.0
  H  H151  1  0.22620000  0.20230000  0.94890000  1.0
  H  H152  1  0.27740000  0.18590000  0.16830000  1.0
  H  H153  1  0.04600000  0.25910000  0.61670000  1.0
  H  H154  1  0.36960000  0.15430000  0.19710000  1.0
  H  H155  1  0.47420000  0.97390000  0.15950000  1.0
  H  H156  1  0.34320000  0.83100000  0.68500000  1.0
  H  H157  1  0.14580000  0.30060000  0.05920000  1.0
  H  H158  1  0.57360000  0.86780000  0.03340000  1.0
  H  H159  1  0.39930000  0.04990000  0.80410000  1.0
  H  H160  1  0.08730000  0.89490000  0.04750000  1.0
  H  H161  1  0.07820000  0.88400000  0.99080000  1.0
  H  H162  1  0.13660000  0.92470000  0.93970000  1.0
  H  H163  1  0.20420000  0.97600000  0.94540000  1.0
  H  H164  1  0.81490000  0.51090000  0.67690000  1.0
  H  H165  1  0.77700000  0.59230000  0.71530000  1.0
  H  H166  1  0.85020000  0.28520000  0.65620000  1.0
  H  H167  1  0.77150000  0.71810000  0.11090000  1.0
  H  H168  1  0.67390000  0.68940000  0.71540000  1.0
  H  H169  1  0.83530000  0.19070000  0.67650000  1.0
  H  H170  1  0.59220000  0.70280000  0.68040000  1.0
  H  H171  1  0.73720000  0.18140000  0.66760000  1.0
  H  H172  1  0.56220000  0.82300000  0.18960000  1.0
  H  H173  1  0.65440000  0.26590000  0.63830000  1.0
  H  H174  1  0.28670000  0.55550000  0.69090000  1.0
  H  H175  1  0.66410000  0.76470000  0.21110000  1.0
  H  H176  1  0.85390000  0.56070000  0.20770000  1.0
  H  H177  1  0.89510000  0.58070000  0.17070000  1.0
  H  H178  1  0.49320000  0.86480000  0.50660000  1.0
  H  H179  1  0.54850000  0.81440000  0.45260000  1.0
  H  H180  1  0.92250000  0.59920000  0.25580000  1.0
  H  H181  1  0.85790000  0.66910000  0.26210000  1.0
  H  H182  1  0.66360000  0.77880000  0.09360000  1.0
  H  H183  1  0.93000000  0.67160000  0.16560000  1.0
  H  H184  1  0.98050000  0.62670000  0.19210000  1.0
  H  H185  1  0.82200000  0.62420000  0.38060000  1.0
  H  H186  1  0.76300000  0.67400000  0.22200000  1.0
  H  H187  1  0.78770000  0.73000000  0.21660000  1.0
  H  H188  1  0.63400000  0.47060000  0.43500000  1.0
  H  H189  1  0.91240000  0.47770000  0.16610000  1.0
  H  H190  1  0.98940000  0.86940000  0.19940000  1.0
  H  H191  1  0.92780000  0.80630000  0.22730000  1.0
  H  H192  1  0.01680000  0.69590000  0.14330000  1.0
  H  H193  1  0.86000000  0.63810000  0.31990000  1.0
  H  H194  1  0.97510000  0.37950000  0.13850000  1.0
  H  H195  1  0.70810000  0.53940000  0.36660000  1.0
  H  H196  1  0.52740000  0.35860000  0.47320000  1.0
  H  H197  1  0.57960000  0.41110000  0.42690000  1.0
  H  H198  1  0.07660000  0.43270000  0.21030000  1.0
  H  H199  1  0.62260000  0.70230000  0.44890000  1.0
  H  H200  1  0.36840000  0.68590000  0.66830000  1.0
  H  H201  1  0.07820000  0.75910000  0.11670000  1.0
  H  H202  1  0.27900000  0.65430000  0.69710000  1.0
  H  H203  1  0.39240000  0.47390000  0.65950000  1.0
  H  H204  1  0.14080000  0.33100000  0.18500000  1.0
  H  H205  1  0.49440000  0.80060000  0.55920000  1.0
  H  H206  1  0.52520000  0.36780000  0.53340000  1.0
  H  H207  1  0.74670000  0.54990000  0.30410000  1.0
  H  H208  1  0.97030000  0.39490000  0.54750000  1.0
  H  H209  1  0.04700000  0.38400000  0.49080000  1.0
  H  H210  1  0.99900000  0.42470000  0.43970000  1.0
  H  H211  1  0.87440000  0.47600000  0.44540000  1.0
  C  C212  1  0.12549000  0.36136000  0.78846000  1.0
  C  C213  1  0.22820000  0.45127000  0.32293000  1.0
  C  C214  1  0.29985000  0.67290000  0.36980000  1.0
  C  C215  1  0.25170000  0.40170000  0.30050000  1.0
  C  C216  1  0.23908000  0.66744000  0.36480000  1.0
  C  C217  1  0.18917000  0.71845000  0.34735000  1.0
  C  C218  1  0.27089000  0.26107000  0.87215000  1.0
  C  C219  1  0.31570000  0.34280000  0.29940000  1.0
  C  C220  1  0.19806000  0.77508000  0.33520000  1.0
  C  C221  1  0.36340000  0.33350000  0.32090000  1.0
  C  C222  1  0.27490000  0.43941000  0.34539000  1.0
  C  C223  1  0.25690000  0.78069000  0.34051000  1.0
  C  C224  1  0.39486000  0.19938000  0.82670000  1.0
  C  C225  1  0.30681000  0.72964000  0.35796000  1.0
  C  C226  1  0.67360000  0.43584000  0.32036000  1.0
  C  C227  1  0.33432000  0.23346000  0.81330000  1.0
  C  C228  1  0.10789000  0.42574000  0.80350000  1.0
  C  C229  1  0.48236000  0.18028000  0.49360000  1.0
  C  C230  1  0.44630000  0.21170000  0.52610000  1.0
  C  C231  1  0.93320000  0.65828000  0.84172000  1.0
  C  C232  1  0.12603000  0.37218000  0.74788000  1.0
  C  C233  1  0.33650000  0.22480000  0.88200000  1.0
  C  C234  1  0.55810000  0.46367000  0.35693000  1.0
  C  C235  1  0.39015000  0.54366000  0.50964000  1.0
  C  C236  1  0.19118000  0.40541000  0.69343000  1.0
  C  C237  1  0.06722000  0.33872000  0.80924000  1.0
  C  C238  1  0.19326000  0.39056000  0.63492000  1.0
  C  C239  1  0.27094000  0.26485000  0.83727000  1.0
  C  C240  1  0.20143000  0.31103000  0.79213000  1.0
  C  C241  1  0.00886000  0.53380000  0.81108000  1.0
  C  C242  1  0.38785000  0.54910000  0.54560000  1.0
  C  C243  1  0.23805000  0.41929000  0.62101000  1.0
  C  C244  1  0.26333000  0.42508000  0.58026000  1.0
  C  C245  1  0.42126000  0.57560000  0.48108000  1.0
  C  C246  1  0.04099000  0.55054000  0.83088000  1.0
  C  C247  1  0.56780000  0.40063000  0.35337000  1.0
  C  C248  1  0.92100000  0.13810000  0.86410000  1.0
  C  C249  1  0.89449000  0.72425000  0.85837000  1.0
  C  C250  1  0.00473000  0.16503000  0.81231000  1.0
  C  C251  1  0.95930000  0.17890000  0.84570000  1.0
  C  C252  1  0.04261000  0.20270000  0.79568000  1.0
  C  C253  1  0.98999000  0.26890000  0.84532000  1.0
  C  C254  1  0.46730000  0.15370000  0.87470000  1.0
  C  C255  1  0.17009000  0.38269000  0.67093000  1.0
  C  C256  1  0.00318000  0.61096000  0.84688000  1.0
  C  C257  1  0.40430000  0.31340000  0.49520000  1.0
  C  C258  1  0.26057000  0.44120000  0.64326000  1.0
  C  C259  1  0.45209000  0.61699000  0.52163000  1.0
  C  C260  1  0.41966000  0.58497000  0.54971000  1.0
  C  C261  1  0.94360000  0.57797000  0.80463000  1.0
  C  C262  1  0.40329000  0.27854000  0.52928000  1.0
  C  C263  1  0.62709000  0.35531000  0.33371000  1.0
  C  C264  1  0.95307000  0.23040000  0.86086000  1.0
  C  C265  1  0.67901000  0.37478000  0.31720000  1.0
  C  C266  1  0.61235000  0.48446000  0.33944000  1.0
  C  C267  1  0.39839000  0.19532000  0.85990000  1.0
  C  C268  1  0.90420000  0.64052000  0.81988000  1.0
  C  C269  1  0.48010000  0.21837000  0.46263000  1.0
  C  C270  1  0.33960000  0.38291000  0.34469000  1.0
  C  C271  1  0.44021000  0.28568000  0.46290000  1.0
  C  C272  1  0.45334000  0.61204000  0.48588000  1.0
  C  C273  1  0.03664000  0.25181000  0.81251000  1.0
  C  C274  1  0.23810000  0.43517000  0.68043000  1.0
  C  C275  1  0.15228000  0.53373000  0.50019000  1.0
  C  C276  1  0.12356000  0.55808000  0.46960000  1.0
  C  C277  1  0.04886000  0.58889000  0.47299000  1.0
  C  C278  1  0.00297000  0.59534000  0.50696000  1.0
  C  C279  1  0.03173000  0.57099000  0.53755000  1.0
  C  C280  1  0.10642000  0.54020000  0.53416000  1.0
  C  C281  1  0.72469000  0.86136000  0.28846000  1.0
  C  C282  1  0.99760000  0.95127000  0.82293000  1.0
  C  C283  1  0.65745000  0.17290000  0.86980000  1.0
  C  C284  1  0.04610000  0.90170000  0.80050000  1.0
  C  C285  1  0.72868000  0.16744000  0.86480000  1.0
  C  C286  1  0.74503000  0.21845000  0.84735000  1.0
  C  C287  1  0.59589000  0.76107000  0.37215000  1.0
  C  C288  1  0.04210000  0.84280000  0.79940000  1.0
  C  C289  1  0.69166000  0.27508000  0.83520000  1.0
  C  C290  1  0.98220000  0.83350000  0.82090000  1.0
  C  C291  1  0.94030000  0.93941000  0.84539000  1.0
  C  C292  1  0.62190000  0.28069000  0.84051000  1.0
  C  C293  1  0.57906000  0.69938000  0.32670000  1.0
  C  C294  1  0.60559000  0.22964000  0.85796000  1.0
  C  C295  1  0.57020000  0.93584000  0.82036000  1.0
  C  C296  1  0.61892000  0.73346000  0.31330000  1.0
  C  C297  1  0.66287000  0.92574000  0.30350000  1.0
  C  C298  1  0.84376000  0.68028000  0.99360000  1.0
  C  C299  1  0.81590000  0.71170000  0.02610000  1.0
  C  C300  1  0.56680000  0.15828000  0.34172000  1.0
  C  C301  1  0.75391000  0.87218000  0.24788000  1.0
  C  C302  1  0.55670000  0.72480000  0.38200000  1.0
  C  C303  1  0.62130000  0.96367000  0.85693000  1.0
  C  C304  1  0.55655000  0.04366000  0.00964000  1.0
  C  C305  1  0.70998000  0.90541000  0.19343000  1.0
  C  C306  1  0.78482000  0.83872000  0.30924000  1.0
  C  C307  1  0.78126000  0.89056000  0.13492000  1.0
  C  C308  1  0.62694000  0.76485000  0.33727000  1.0
  C  C309  1  0.69541000  0.81103000  0.29213000  1.0
  C  C310  1  0.64626000  0.03380000  0.31108000  1.0
  C  C311  1  0.51745000  0.04910000  0.04560000  1.0
  C  C312  1  0.72165000  0.91929000  0.12101000  1.0
  C  C313  1  0.73133000  0.92508000  0.08026000  1.0
  C  C314  1  0.52206000  0.07560000  0.98108000  1.0
  C  C315  1  0.57759000  0.05054000  0.33088000  1.0
  C  C316  1  0.67820000  0.90063000  0.85337000  1.0
  C  C317  1  0.07680000  0.63810000  0.36410000  1.0
  C  C318  1  0.52289000  0.22425000  0.35837000  1.0
  C  C319  1  0.01793000  0.66503000  0.31231000  1.0
  C  C320  1  0.01610000  0.67890000  0.34570000  1.0
  C  C321  1  0.95901000  0.70270000  0.29568000  1.0
  C  C322  1  0.89579000  0.76890000  0.34532000  1.0
  C  C323  1  0.50430000  0.65370000  0.37470000  1.0
  C  C324  1  0.77629000  0.88269000  0.17093000  1.0
  C  C325  1  0.53898000  0.11096000  0.34688000  1.0
  C  C326  1  0.78710000  0.81340000  0.99520000  1.0
  C  C327  1  0.65497000  0.94120000  0.14326000  1.0
  C  C328  1  0.40929000  0.11699000  0.02163000  1.0
  C  C329  1  0.44566000  0.08497000  0.04971000  1.0
  C  C330  1  0.67380000  0.07797000  0.30463000  1.0
  C  C331  1  0.78889000  0.77854000  0.02928000  1.0
  C  C332  1  0.68389000  0.85531000  0.83371000  1.0
  C  C333  1  0.95567000  0.73040000  0.36086000  1.0
  C  C334  1  0.62901000  0.87478000  0.81720000  1.0
  C  C335  1  0.56375000  0.98446000  0.83944000  1.0
  C  C336  1  0.54639000  0.69532000  0.35990000  1.0
  C  C337  1  0.63540000  0.14052000  0.31988000  1.0
  C  C338  1  0.83890000  0.71837000  0.96263000  1.0
  C  C339  1  0.93280000  0.88291000  0.84469000  1.0
  C  C340  1  0.81121000  0.78568000  0.96290000  1.0
  C  C341  1  0.44874000  0.11204000  0.98588000  1.0
  C  C342  1  0.89904000  0.75181000  0.31251000  1.0
  C  C343  1  0.64630000  0.93517000  0.18043000  1.0
  C  C344  1  0.81380000  0.03373000  0.00019000  1.0
  C  C345  1  0.84876000  0.05808000  0.96960000  1.0
  C  C346  1  0.88926000  0.08889000  0.97299000  1.0
  C  C347  1  0.89473000  0.09534000  0.00696000  1.0
  C  C348  1  0.85973000  0.07099000  0.03755000  1.0
  C  C349  1  0.81922000  0.04020000  0.03416000  1.0
  C  C350  1  0.27531000  0.13864000  0.71154000  1.0
  C  C351  1  0.00240000  0.04873000  0.17707000  1.0
  C  C352  1  0.34255000  0.82710000  0.13020000  1.0
  C  C353  1  0.95390000  0.09830000  0.19950000  1.0
  C  C354  1  0.27132000  0.83256000  0.13520000  1.0
  C  C355  1  0.25497000  0.78155000  0.15265000  1.0
  C  C356  1  0.40411000  0.23893000  0.62785000  1.0
  C  C357  1  0.95790000  0.15720000  0.20060000  1.0
  C  C358  1  0.30834000  0.72492000  0.16480000  1.0
  C  C359  1  0.01780000  0.16650000  0.17910000  1.0
  C  C360  1  0.05970000  0.06059000  0.15461000  1.0
  C  C361  1  0.37810000  0.71931000  0.15949000  1.0
  C  C362  1  0.42094000  0.30062000  0.67330000  1.0
  C  C363  1  0.39441000  0.77036000  0.14204000  1.0
  C  C364  1  0.42980000  0.06416000  0.17964000  1.0
  C  C365  1  0.38108000  0.26654000  0.68670000  1.0
  C  C366  1  0.33713000  0.07426000  0.69650000  1.0
  C  C367  1  0.15624000  0.31972000  0.00640000  1.0
  C  C368  1  0.18410000  0.28830000  0.97390000  1.0
  C  C369  1  0.43320000  0.84172000  0.65828000  1.0
  C  C370  1  0.24609000  0.12782000  0.75212000  1.0
  C  C371  1  0.44330000  0.27520000  0.61800000  1.0
  C  C372  1  0.37870000  0.03633000  0.14307000  1.0
  C  C373  1  0.44345000  0.95634000  0.99036000  1.0
  C  C374  1  0.29002000  0.09459000  0.80657000  1.0
  C  C375  1  0.21518000  0.16128000  0.69076000  1.0
  C  C376  1  0.21874000  0.10944000  0.86508000  1.0
  C  C377  1  0.37306000  0.23515000  0.66273000  1.0
  C  C378  1  0.30459000  0.18897000  0.70787000  1.0
  C  C379  1  0.35374000  0.96620000  0.68892000  1.0
  C  C380  1  0.48255000  0.95090000  0.95440000  1.0
  C  C381  1  0.27835000  0.08071000  0.87899000  1.0
  C  C382  1  0.26867000  0.07492000  0.91974000  1.0
  C  C383  1  0.47794000  0.92440000  0.01892000  1.0
  C  C384  1  0.42241000  0.94946000  0.66912000  1.0
  C  C385  1  0.32180000  0.09937000  0.14663000  1.0
  C  C386  1  0.92320000  0.36190000  0.63590000  1.0
  C  C387  1  0.47711000  0.77575000  0.64163000  1.0
  C  C388  1  0.98207000  0.33497000  0.68769000  1.0
  C  C389  1  0.98390000  0.32110000  0.65430000  1.0
  C  C390  1  0.04099000  0.29730000  0.70432000  1.0
  C  C391  1  0.10421000  0.23110000  0.65468000  1.0
  C  C392  1  0.49570000  0.34630000  0.62530000  1.0
  C  C393  1  0.22371000  0.11731000  0.82907000  1.0
  C  C394  1  0.46102000  0.88904000  0.65312000  1.0
  C  C395  1  0.21290000  0.18660000  0.00480000  1.0
  C  C396  1  0.34503000  0.05880000  0.85674000  1.0
  C  C397  1  0.59071000  0.88301000  0.97837000  1.0
  C  C398  1  0.55434000  0.91503000  0.95029000  1.0
  C  C399  1  0.32620000  0.92203000  0.69537000  1.0
  C  C400  1  0.21111000  0.22146000  0.97072000  1.0
  C  C401  1  0.31611000  0.14469000  0.16629000  1.0
  C  C402  1  0.04433000  0.26960000  0.63914000  1.0
  C  C403  1  0.37099000  0.12522000  0.18280000  1.0
  C  C404  1  0.43625000  0.01554000  0.16056000  1.0
  C  C405  1  0.45361000  0.30468000  0.64010000  1.0
  C  C406  1  0.36460000  0.85948000  0.68012000  1.0
  C  C407  1  0.16110000  0.28163000  0.03737000  1.0
  C  C408  1  0.06720000  0.11709000  0.15531000  1.0
  C  C409  1  0.18879000  0.21432000  0.03710000  1.0
  C  C410  1  0.55126000  0.88796000  0.01412000  1.0
  C  C411  1  0.10096000  0.24819000  0.68749000  1.0
  C  C412  1  0.35370000  0.06483000  0.81957000  1.0
  C  C413  1  0.18620000  0.96627000  0.99981000  1.0
  C  C414  1  0.15124000  0.94192000  0.03040000  1.0
  C  C415  1  0.11074000  0.91111000  0.02701000  1.0
  C  C416  1  0.10527000  0.90466000  0.99304000  1.0
  C  C417  1  0.14027000  0.92901000  0.96245000  1.0
  C  C418  1  0.18078000  0.95980000  0.96584000  1.0
  C  C419  1  0.87451000  0.63864000  0.21154000  1.0
  C  C420  1  0.77180000  0.54873000  0.67707000  1.0
  C  C421  1  0.70015000  0.32710000  0.63020000  1.0
  C  C422  1  0.74830000  0.59830000  0.69950000  1.0
  C  C423  1  0.76092000  0.33256000  0.63520000  1.0
  C  C424  1  0.81083000  0.28155000  0.65265000  1.0
  C  C425  1  0.72911000  0.73893000  0.12785000  1.0
  C  C426  1  0.68430000  0.65720000  0.70060000  1.0
  C  C427  1  0.80194000  0.22492000  0.66480000  1.0
  C  C428  1  0.63660000  0.66650000  0.67910000  1.0
  C  C429  1  0.72510000  0.56059000  0.65461000  1.0
  C  C430  1  0.74310000  0.21931000  0.65949000  1.0
  C  C431  1  0.60514000  0.80062000  0.17330000  1.0
  C  C432  1  0.69319000  0.27036000  0.64204000  1.0
  C  C433  1  0.32640000  0.56416000  0.67964000  1.0
  C  C434  1  0.66568000  0.76654000  0.18670000  1.0
  C  C435  1  0.89211000  0.57426000  0.19650000  1.0
  C  C436  1  0.51764000  0.81972000  0.50640000  1.0
  C  C437  1  0.55370000  0.78830000  0.47390000  1.0
  C  C438  1  0.06680000  0.34172000  0.15828000  1.0
  C  C439  1  0.87397000  0.62782000  0.25212000  1.0
  C  C440  1  0.66350000  0.77520000  0.11800000  1.0
  C  C441  1  0.44190000  0.53633000  0.64307000  1.0
  C  C442  1  0.60985000  0.45634000  0.49036000  1.0
  C  C443  1  0.80882000  0.59459000  0.30657000  1.0
  C  C444  1  0.93278000  0.66128000  0.19076000  1.0
  C  C445  1  0.80674000  0.60944000  0.36508000  1.0
  C  C446  1  0.72906000  0.73515000  0.16273000  1.0
  C  C447  1  0.79857000  0.68897000  0.20787000  1.0
  C  C448  1  0.99114000  0.46620000  0.18892000  1.0
  C  C449  1  0.61215000  0.45090000  0.45440000  1.0
  C  C450  1  0.76195000  0.58071000  0.37899000  1.0
  C  C451  1  0.73667000  0.57492000  0.41974000  1.0
  C  C452  1  0.57874000  0.42440000  0.51892000  1.0
  C  C453  1  0.95901000  0.44946000  0.16912000  1.0
  C  C454  1  0.43220000  0.59937000  0.64663000  1.0
  C  C455  1  0.07900000  0.86190000  0.13590000  1.0
  C  C456  1  0.10551000  0.27575000  0.14163000  1.0
  C  C457  1  0.99527000  0.83497000  0.18769000  1.0
  C  C458  1  0.04070000  0.82110000  0.15430000  1.0
  C  C459  1  0.95739000  0.79730000  0.20432000  1.0
  C  C460  1  0.01001000  0.73110000  0.15468000  1.0
  C  C461  1  0.53270000  0.84630000  0.12530000  1.0
  C  C462  1  0.82991000  0.61731000  0.32907000  1.0
  C  C463  1  0.99682000  0.38904000  0.15312000  1.0
  C  C464  1  0.59570000  0.68660000  0.50480000  1.0
  C  C465  1  0.73943000  0.55880000  0.35674000  1.0
  C  C466  1  0.54791000  0.38301000  0.47837000  1.0
  C  C467  1  0.58034000  0.41503000  0.45029000  1.0
  C  C468  1  0.05640000  0.42203000  0.19537000  1.0
  C  C469  1  0.59671000  0.72146000  0.47072000  1.0
  C  C470  1  0.37291000  0.64469000  0.66629000  1.0
  C  C471  1  0.04693000  0.76960000  0.13914000  1.0
  C  C472  1  0.32099000  0.62522000  0.68280000  1.0
  C  C473  1  0.38765000  0.51554000  0.66056000  1.0
  C  C474  1  0.60161000  0.80468000  0.14010000  1.0
  C  C475  1  0.09580000  0.35948000  0.18012000  1.0
  C  C476  1  0.51990000  0.78163000  0.53737000  1.0
  C  C477  1  0.66040000  0.61709000  0.65531000  1.0
  C  C478  1  0.55979000  0.71432000  0.53710000  1.0
  C  C479  1  0.54666000  0.38796000  0.51412000  1.0
  C  C480  1  0.96336000  0.74819000  0.18749000  1.0
  C  C481  1  0.76190000  0.56483000  0.31957000  1.0
  C  C482  1  0.84772000  0.46627000  0.49981000  1.0
  C  C483  1  0.87644000  0.44192000  0.53040000  1.0
  C  C484  1  0.95114000  0.41111000  0.52701000  1.0
  C  C485  1  0.99703000  0.40466000  0.49304000  1.0
  C  C486  1  0.96827000  0.42901000  0.46245000  1.0
  C  C487  1  0.89358000  0.45980000  0.46584000  1.0
  N  N488  1  0.18103000  0.54515000  0.44279000  1.0
  N  N489  1  0.36287000  0.51273000  0.49557000  1.0
  N  N490  1  0.24088000  0.51206000  0.45668000  1.0
  N  N491  1  0.22542000  0.50426000  0.49230000  1.0
  N  N492  1  0.37710000  0.52436000  0.45948000  1.0
  N  N493  1  0.41250000  0.56108000  0.45026000  1.0
  N  N494  1  0.49180000  0.49919000  0.37841000  1.0
  N  N495  1  0.46088000  0.45862000  0.38754000  1.0
  N  N496  1  0.50428000  0.39907000  0.37317000  1.0
  N  N497  1  0.37301000  0.38600000  0.36898000  1.0
  N  N498  1  0.32782000  0.44229000  0.38387000  1.0
  N  N499  1  0.26754000  0.47523000  0.37069000  1.0
  N  N500  1  0.24571000  0.60925000  0.38173000  1.0
  N  N501  1  0.30939000  0.58082000  0.39280000  1.0
  N  N502  1  0.34283000  0.61842000  0.38552000  1.0
  N  N503  1  0.37044000  0.37860000  0.48802000  1.0
  N  N504  1  0.38933000  0.38693000  0.45261000  1.0
  N  N505  1  0.43075000  0.33166000  0.43700000  1.0
  N  N506  1  0.83103000  0.04515000  0.94279000  1.0
  N  N507  1  0.62883000  0.01273000  0.99557000  1.0
  N  N508  1  0.79038000  0.01206000  0.95668000  1.0
  N  N509  1  0.77802000  0.00426000  0.99230000  1.0
  N  N510  1  0.63906000  0.02436000  0.95948000  1.0
  N  N511  1  0.57616000  0.06108000  0.95026000  1.0
  N  N512  1  0.63060000  0.99919000  0.87841000  1.0
  N  N513  1  0.69296000  0.95862000  0.88754000  1.0
  N  N514  1  0.72348000  0.89907000  0.87317000  1.0
  N  N515  1  0.87201000  0.88600000  0.86898000  1.0
  N  N516  1  0.84602000  0.94229000  0.88387000  1.0
  N  N517  1  0.88654000  0.97523000  0.87069000  1.0
  N  N518  1  0.76331000  0.10925000  0.88173000  1.0
  N  N519  1  0.71699000  0.08082000  0.89280000  1.0
  N  N520  1  0.65323000  0.11842000  0.88552000  1.0
  N  N521  1  0.76294000  0.87860000  0.98802000  1.0
  N  N522  1  0.77113000  0.88693000  0.95261000  1.0
  N  N523  1  0.80059000  0.83166000  0.93700000  1.0
  N  N524  1  0.16897000  0.95485000  0.05721000  1.0
  N  N525  1  0.37117000  0.98727000  0.00443000  1.0
  N  N526  1  0.20962000  0.98794000  0.04332000  1.0
  N  N527  1  0.22198000  0.99574000  0.00770000  1.0
  N  N528  1  0.36094000  0.97564000  0.04052000  1.0
  N  N529  1  0.42384000  0.93892000  0.04974000  1.0
  N  N530  1  0.36940000  0.00081000  0.12159000  1.0
  N  N531  1  0.30704000  0.04138000  0.11246000  1.0
  N  N532  1  0.27652000  0.10093000  0.12683000  1.0
  N  N533  1  0.12799000  0.11400000  0.13102000  1.0
  N  N534  1  0.15398000  0.05771000  0.11613000  1.0
  N  N535  1  0.11346000  0.02477000  0.12931000  1.0
  N  N536  1  0.23669000  0.89075000  0.11827000  1.0
  N  N537  1  0.28301000  0.91918000  0.10720000  1.0
  N  N538  1  0.34677000  0.88158000  0.11448000  1.0
  N  N539  1  0.23706000  0.12140000  0.01198000  1.0
  N  N540  1  0.22887000  0.11307000  0.04739000  1.0
  N  N541  1  0.19941000  0.16834000  0.06300000  1.0
  N  N542  1  0.81897000  0.45485000  0.55721000  1.0
  N  N543  1  0.63713000  0.48727000  0.50443000  1.0
  N  N544  1  0.75912000  0.48794000  0.54332000  1.0
  N  N545  1  0.77458000  0.49574000  0.50770000  1.0
  N  N546  1  0.62290000  0.47564000  0.54052000  1.0
  N  N547  1  0.58750000  0.43892000  0.54974000  1.0
  N  N548  1  0.50820000  0.50081000  0.62159000  1.0
  N  N549  1  0.53912000  0.54138000  0.61246000  1.0
  N  N550  1  0.49572000  0.60093000  0.62683000  1.0
  N  N551  1  0.62699000  0.61400000  0.63102000  1.0
  N  N552  1  0.67218000  0.55771000  0.61613000  1.0
  N  N553  1  0.73246000  0.52477000  0.62931000  1.0
  N  N554  1  0.75429000  0.39075000  0.61827000  1.0
  N  N555  1  0.69061000  0.41918000  0.60720000  1.0
  N  N556  1  0.65717000  0.38158000  0.61448000  1.0
  N  N557  1  0.62956000  0.62140000  0.51198000  1.0
  N  N558  1  0.61067000  0.61307000  0.54739000  1.0
  N  N559  1  0.56925000  0.66834000  0.56300000  1.0
  O  O560  1  0.92604000  0.09397000  0.84615000  1.0
  O  O561  1  0.88539000  0.14746000  0.89336000  1.0
  O  O562  1  0.24668000  0.40240000  0.56104000  1.0
  O  O563  1  0.29930000  0.45919000  0.56903000  1.0
  O  O564  1  0.47038000  0.14973000  0.90331000  1.0
  O  O565  1  0.52250000  0.13562000  0.85018000  1.0
  O  O566  1  0.92076000  0.73255000  0.87953000  1.0
  O  O567  1  0.84140000  0.76356000  0.84884000  1.0
  O  O568  1  0.03969000  0.47573000  0.79615000  1.0
  O  O569  1  0.17368000  0.40076000  0.73050000  1.0
  O  O570  1  0.20378000  0.30259000  0.82849000  1.0
  O  O571  1  0.07909000  0.28207000  0.79355000  1.0
  O  O572  1  0.13384000  0.59397000  0.34615000  1.0
  O  O573  1  0.07379000  0.64746000  0.39336000  1.0
  O  O574  1  0.78988000  0.90240000  0.06104000  1.0
  O  O575  1  0.67248000  0.95919000  0.06903000  1.0
  O  O576  1  0.47658000  0.64973000  0.40331000  1.0
  O  O577  1  0.49170000  0.63562000  0.35018000  1.0
  O  O578  1  0.46716000  0.23255000  0.37953000  1.0
  O  O579  1  0.54620000  0.26356000  0.34884000  1.0
  O  O580  1  0.68843000  0.97573000  0.29615000  1.0
  O  O581  1  0.69506000  0.90076000  0.23050000  1.0
  O  O582  1  0.66514000  0.80259000  0.32849000  1.0
  O  O583  1  0.84529000  0.78207000  0.29355000  1.0
  O  O584  1  0.86616000  0.40603000  0.65385000  1.0
  O  O585  1  0.92621000  0.35254000  0.60664000  1.0
  O  O586  1  0.21012000  0.09760000  0.93896000  1.0
  O  O587  1  0.32752000  0.04081000  0.93097000  1.0
  O  O588  1  0.52342000  0.35027000  0.59669000  1.0
  O  O589  1  0.50830000  0.36438000  0.64982000  1.0
  O  O590  1  0.53284000  0.76745000  0.62047000  1.0
  O  O591  1  0.45380000  0.73644000  0.65116000  1.0
  O  O592  1  0.31157000  0.02427000  0.70385000  1.0
  O  O593  1  0.30494000  0.09924000  0.76950000  1.0
  O  O594  1  0.33486000  0.19741000  0.67151000  1.0
  O  O595  1  0.15471000  0.21793000  0.70645000  1.0
  O  O596  1  0.07396000  0.90603000  0.15385000  1.0
  O  O597  1  0.11461000  0.85254000  0.10664000  1.0
  O  O598  1  0.75332000  0.59760000  0.43896000  1.0
  O  O599  1  0.70070000  0.54081000  0.43097000  1.0
  O  O600  1  0.52962000  0.85027000  0.09669000  1.0
  O  O601  1  0.47750000  0.86438000  0.14982000  1.0
  O  O602  1  0.07924000  0.26745000  0.12047000  1.0
  O  O603  1  0.15860000  0.23644000  0.15116000  1.0
  O  O604  1  0.96031000  0.52427000  0.20385000  1.0
  O  O605  1  0.82632000  0.59924000  0.26950000  1.0
  O  O606  1  0.79622000  0.69741000  0.17151000  1.0
  O  O607  1  0.92091000  0.71793000  0.20645000  1.0
