# generated using pymatgen
data_ZnH12C18(NO2)2
_symmetry_space_group_name_H-M   'P 1'
_cell_length_a   27.74770000
_cell_length_b   27.74770000
_cell_length_c   3.76690000
_cell_angle_alpha   90.00000000
_cell_angle_beta   90.00000000
_cell_angle_gamma   90.00000000
_symmetry_Int_Tables_number   1
_chemical_formula_structural   ZnH12C18(NO2)2
_chemical_formula_sum   'Zn8 H96 C144 N16 O32'
_cell_volume   2900.26760639
_cell_formula_units_Z   8
loop_
 _symmetry_equiv_pos_site_id
 _symmetry_equiv_pos_as_xyz
  1  'x, y, z'
loop_
 _atom_site_type_symbol
 _atom_site_label
 _atom_site_symmetry_multiplicity
 _atom_site_fract_x
 _atom_site_fract_y
 _atom_site_fract_z
 _atom_site_occupancy
  Zn  Zn0  1  0.28308000  0.21414000  0.86890000  1.0
  Zn  Zn1  1  0.78308000  0.71414000  0.36890000  1.0
  Zn  Zn2  1  0.71692000  0.78586000  0.86890000  1.0
  Zn  Zn3  1  0.21692000  0.28586000  0.36890000  1.0
  Zn  Zn4  1  0.21414000  0.71692000  0.13110000  1.0
  Zn  Zn5  1  0.71414000  0.21692000  0.63110000  1.0
  Zn  Zn6  1  0.78586000  0.28308000  0.13110000  1.0
  Zn  Zn7  1  0.28586000  0.78308000  0.63110000  1.0
  H  H8  1  0.19380000  0.26690000  0.77500000  1.0
  H  H9  1  0.30900000  0.10980000  0.08380000  1.0
  H  H10  1  0.18130000  0.18490000  0.42330000  1.0
  H  H11  1  0.10390000  0.17990000  0.12670000  1.0
  H  H12  1  0.03640000  0.13730000  0.95200000  1.0
  H  H13  1  0.03180000  0.05600000  0.10580000  1.0
  H  H14  1  0.09320000  0.02030000  0.41760000  1.0
  H  H15  1  0.16850000  0.02190000  0.71630000  1.0
  H  H16  1  0.22180000  0.92300000  0.39540000  1.0
  H  H17  1  0.36010000  0.95380000  0.17530000  1.0
  H  H18  1  0.33740000  0.02970000  0.97720000  1.0
  H  H19  1  0.19910000  0.99890000  0.19730000  1.0
  H  H20  1  0.69380000  0.76690000  0.27500000  1.0
  H  H21  1  0.80900000  0.60980000  0.58380000  1.0
  H  H22  1  0.68130000  0.68490000  0.92330000  1.0
  H  H23  1  0.60390000  0.67990000  0.62670000  1.0
  H  H24  1  0.53640000  0.63730000  0.45200000  1.0
  H  H25  1  0.53180000  0.55600000  0.60580000  1.0
  H  H26  1  0.59320000  0.52030000  0.91760000  1.0
  H  H27  1  0.66850000  0.52190000  0.21630000  1.0
  H  H28  1  0.72180000  0.42300000  0.89540000  1.0
  H  H29  1  0.86010000  0.45380000  0.67530000  1.0
  H  H30  1  0.83740000  0.52970000  0.47720000  1.0
  H  H31  1  0.69910000  0.49890000  0.69730000  1.0
  H  H32  1  0.80620000  0.73310000  0.77500000  1.0
  H  H33  1  0.69100000  0.89020000  0.08380000  1.0
  H  H34  1  0.81870000  0.81510000  0.42330000  1.0
  H  H35  1  0.89610000  0.82010000  0.12670000  1.0
  H  H36  1  0.96360000  0.86270000  0.95200000  1.0
  H  H37  1  0.96820000  0.94400000  0.10580000  1.0
  H  H38  1  0.90680000  0.97970000  0.41760000  1.0
  H  H39  1  0.83150000  0.97810000  0.71630000  1.0
  H  H40  1  0.77820000  0.07700000  0.39540000  1.0
  H  H41  1  0.63990000  0.04620000  0.17530000  1.0
  H  H42  1  0.66260000  0.97030000  0.97720000  1.0
  H  H43  1  0.80090000  0.00110000  0.19730000  1.0
  H  H44  1  0.30620000  0.23310000  0.27500000  1.0
  H  H45  1  0.19100000  0.39020000  0.58380000  1.0
  H  H46  1  0.31870000  0.31510000  0.92330000  1.0
  H  H47  1  0.39610000  0.32010000  0.62670000  1.0
  H  H48  1  0.46360000  0.36270000  0.45200000  1.0
  H  H49  1  0.46820000  0.44400000  0.60580000  1.0
  H  H50  1  0.40680000  0.47970000  0.91760000  1.0
  H  H51  1  0.33150000  0.47810000  0.21630000  1.0
  H  H52  1  0.27820000  0.57700000  0.89540000  1.0
  H  H53  1  0.13990000  0.54620000  0.67530000  1.0
  H  H54  1  0.16260000  0.47030000  0.47720000  1.0
  H  H55  1  0.30090000  0.50110000  0.69730000  1.0
  H  H56  1  0.26690000  0.80620000  0.22500000  1.0
  H  H57  1  0.10980000  0.69100000  0.91620000  1.0
  H  H58  1  0.18490000  0.81870000  0.57670000  1.0
  H  H59  1  0.17990000  0.89610000  0.87330000  1.0
  H  H60  1  0.13730000  0.96360000  0.04800000  1.0
  H  H61  1  0.05600000  0.96820000  0.89420000  1.0
  H  H62  1  0.02030000  0.90680000  0.58240000  1.0
  H  H63  1  0.02190000  0.83150000  0.28370000  1.0
  H  H64  1  0.92300000  0.77820000  0.60460000  1.0
  H  H65  1  0.95380000  0.63990000  0.82470000  1.0
  H  H66  1  0.02970000  0.66260000  0.02280000  1.0
  H  H67  1  0.99890000  0.80090000  0.80270000  1.0
  H  H68  1  0.76690000  0.30620000  0.72500000  1.0
  H  H69  1  0.60980000  0.19100000  0.41620000  1.0
  H  H70  1  0.68490000  0.31870000  0.07670000  1.0
  H  H71  1  0.67990000  0.39610000  0.37330000  1.0
  H  H72  1  0.63730000  0.46360000  0.54800000  1.0
  H  H73  1  0.55600000  0.46820000  0.39420000  1.0
  H  H74  1  0.52030000  0.40680000  0.08240000  1.0
  H  H75  1  0.52190000  0.33150000  0.78370000  1.0
  H  H76  1  0.42300000  0.27820000  0.10460000  1.0
  H  H77  1  0.45380000  0.13990000  0.32470000  1.0
  H  H78  1  0.52970000  0.16260000  0.52280000  1.0
  H  H79  1  0.49890000  0.30090000  0.30270000  1.0
  H  H80  1  0.73310000  0.19380000  0.22500000  1.0
  H  H81  1  0.89020000  0.30900000  0.91620000  1.0
  H  H82  1  0.81510000  0.18130000  0.57670000  1.0
  H  H83  1  0.82010000  0.10390000  0.87330000  1.0
  H  H84  1  0.86270000  0.03640000  0.04800000  1.0
  H  H85  1  0.94400000  0.03180000  0.89420000  1.0
  H  H86  1  0.97970000  0.09320000  0.58240000  1.0
  H  H87  1  0.97810000  0.16850000  0.28370000  1.0
  H  H88  1  0.07700000  0.22180000  0.60460000  1.0
  H  H89  1  0.04620000  0.36010000  0.82470000  1.0
  H  H90  1  0.97030000  0.33740000  0.02280000  1.0
  H  H91  1  0.00110000  0.19910000  0.80270000  1.0
  H  H92  1  0.23310000  0.69380000  0.72500000  1.0
  H  H93  1  0.39020000  0.80900000  0.41620000  1.0
  H  H94  1  0.31510000  0.68130000  0.07670000  1.0
  H  H95  1  0.32010000  0.60390000  0.37330000  1.0
  H  H96  1  0.36270000  0.53640000  0.54800000  1.0
  H  H97  1  0.44400000  0.53180000  0.39420000  1.0
  H  H98  1  0.47970000  0.59320000  0.08240000  1.0
  H  H99  1  0.47810000  0.66850000  0.78370000  1.0
  H  H100  1  0.57700000  0.72180000  0.10460000  1.0
  H  H101  1  0.54620000  0.86010000  0.32470000  1.0
  H  H102  1  0.47030000  0.83740000  0.52280000  1.0
  H  H103  1  0.50110000  0.69910000  0.30270000  1.0
  C  C104  1  0.27940000  0.10840000  0.96900000  1.0
  C  C105  1  0.21430000  0.12920000  0.67000000  1.0
  C  C106  1  0.17850000  0.15240000  0.48000000  1.0
  C  C107  1  0.13830000  0.12650000  0.37800000  1.0
  C  C108  1  0.10140000  0.14750000  0.18600000  1.0
  C  C109  1  0.06090000  0.12250000  0.08000000  1.0
  C  C110  1  0.05850000  0.07420000  0.17200000  1.0
  C  C111  1  0.09550000  0.05280000  0.36100000  1.0
  C  C112  1  0.13590000  0.07810000  0.46900000  1.0
  C  C113  1  0.17150000  0.05440000  0.65900000  1.0
  C  C114  1  0.21160000  0.08070000  0.76200000  1.0
  C  C115  1  0.24500000  0.94440000  0.31200000  1.0
  C  C116  1  0.29320000  0.93090000  0.30500000  1.0
  C  C117  1  0.32780000  0.96290000  0.18000000  1.0
  C  C118  1  0.31420000  0.00830000  0.06100000  1.0
  C  C119  1  0.26600000  0.02180000  0.06800000  1.0
  C  C120  1  0.23140000  0.98990000  0.19300000  1.0
  C  C121  1  0.30740000  0.88120000  0.43500000  1.0
  C  C122  1  0.77940000  0.60840000  0.46900000  1.0
  C  C123  1  0.71430000  0.62920000  0.17000000  1.0
  C  C124  1  0.67850000  0.65240000  0.98000000  1.0
  C  C125  1  0.63830000  0.62650000  0.87800000  1.0
  C  C126  1  0.60140000  0.64750000  0.68600000  1.0
  C  C127  1  0.56090000  0.62250000  0.58000000  1.0
  C  C128  1  0.55850000  0.57420000  0.67200000  1.0
  C  C129  1  0.59550000  0.55280000  0.86100000  1.0
  C  C130  1  0.63590000  0.57810000  0.96900000  1.0
  C  C131  1  0.67150000  0.55440000  0.15900000  1.0
  C  C132  1  0.71160000  0.58070000  0.26200000  1.0
  C  C133  1  0.74500000  0.44440000  0.81200000  1.0
  C  C134  1  0.79320000  0.43090000  0.80500000  1.0
  C  C135  1  0.82780000  0.46290000  0.68000000  1.0
  C  C136  1  0.81420000  0.50830000  0.56100000  1.0
  C  C137  1  0.76600000  0.52180000  0.56800000  1.0
  C  C138  1  0.73140000  0.48990000  0.69300000  1.0
  C  C139  1  0.80740000  0.38120000  0.93500000  1.0
  C  C140  1  0.72060000  0.89160000  0.96900000  1.0
  C  C141  1  0.78570000  0.87080000  0.67000000  1.0
  C  C142  1  0.82150000  0.84760000  0.48000000  1.0
  C  C143  1  0.86170000  0.87350000  0.37800000  1.0
  C  C144  1  0.89860000  0.85250000  0.18600000  1.0
  C  C145  1  0.93910000  0.87750000  0.08000000  1.0
  C  C146  1  0.94150000  0.92580000  0.17200000  1.0
  C  C147  1  0.90450000  0.94720000  0.36100000  1.0
  C  C148  1  0.86410000  0.92190000  0.46900000  1.0
  C  C149  1  0.82850000  0.94560000  0.65900000  1.0
  C  C150  1  0.78840000  0.91930000  0.76200000  1.0
  C  C151  1  0.75500000  0.05560000  0.31200000  1.0
  C  C152  1  0.70680000  0.06910000  0.30500000  1.0
  C  C153  1  0.67220000  0.03710000  0.18000000  1.0
  C  C154  1  0.68580000  0.99170000  0.06100000  1.0
  C  C155  1  0.73400000  0.97820000  0.06800000  1.0
  C  C156  1  0.76860000  0.01010000  0.19300000  1.0
  C  C157  1  0.69260000  0.11880000  0.43500000  1.0
  C  C158  1  0.22060000  0.39160000  0.46900000  1.0
  C  C159  1  0.28570000  0.37080000  0.17000000  1.0
  C  C160  1  0.32150000  0.34760000  0.98000000  1.0
  C  C161  1  0.36170000  0.37350000  0.87800000  1.0
  C  C162  1  0.39860000  0.35250000  0.68600000  1.0
  C  C163  1  0.43910000  0.37750000  0.58000000  1.0
  C  C164  1  0.44150000  0.42580000  0.67200000  1.0
  C  C165  1  0.40450000  0.44720000  0.86100000  1.0
  C  C166  1  0.36410000  0.42190000  0.96900000  1.0
  C  C167  1  0.32850000  0.44560000  0.15900000  1.0
  C  C168  1  0.28840000  0.41930000  0.26200000  1.0
  C  C169  1  0.25500000  0.55560000  0.81200000  1.0
  C  C170  1  0.20680000  0.56910000  0.80500000  1.0
  C  C171  1  0.17220000  0.53710000  0.68000000  1.0
  C  C172  1  0.18580000  0.49170000  0.56100000  1.0
  C  C173  1  0.23400000  0.47820000  0.56800000  1.0
  C  C174  1  0.26860000  0.51010000  0.69300000  1.0
  C  C175  1  0.19260000  0.61880000  0.93500000  1.0
  C  C176  1  0.10840000  0.72060000  0.03100000  1.0
  C  C177  1  0.12920000  0.78570000  0.33000000  1.0
  C  C178  1  0.15240000  0.82150000  0.52000000  1.0
  C  C179  1  0.12650000  0.86170000  0.62200000  1.0
  C  C180  1  0.14750000  0.89860000  0.81400000  1.0
  C  C181  1  0.12250000  0.93910000  0.92000000  1.0
  C  C182  1  0.07420000  0.94150000  0.82800000  1.0
  C  C183  1  0.05280000  0.90450000  0.63900000  1.0
  C  C184  1  0.07810000  0.86410000  0.53100000  1.0
  C  C185  1  0.05440000  0.82850000  0.34100000  1.0
  C  C186  1  0.08070000  0.78840000  0.23800000  1.0
  C  C187  1  0.94440000  0.75500000  0.68800000  1.0
  C  C188  1  0.93090000  0.70680000  0.69500000  1.0
  C  C189  1  0.96290000  0.67220000  0.82000000  1.0
  C  C190  1  0.00830000  0.68580000  0.93900000  1.0
  C  C191  1  0.02180000  0.73400000  0.93200000  1.0
  C  C192  1  0.98990000  0.76860000  0.80700000  1.0
  C  C193  1  0.88120000  0.69260000  0.56500000  1.0
  C  C194  1  0.60840000  0.22060000  0.53100000  1.0
  C  C195  1  0.62920000  0.28570000  0.83000000  1.0
  C  C196  1  0.65240000  0.32150000  0.02000000  1.0
  C  C197  1  0.62650000  0.36170000  0.12200000  1.0
  C  C198  1  0.64750000  0.39860000  0.31400000  1.0
  C  C199  1  0.62250000  0.43910000  0.42000000  1.0
  C  C200  1  0.57420000  0.44150000  0.32800000  1.0
  C  C201  1  0.55280000  0.40450000  0.13900000  1.0
  C  C202  1  0.57810000  0.36410000  0.03100000  1.0
  C  C203  1  0.55440000  0.32850000  0.84100000  1.0
  C  C204  1  0.58070000  0.28840000  0.73800000  1.0
  C  C205  1  0.44440000  0.25500000  0.18800000  1.0
  C  C206  1  0.43090000  0.20680000  0.19500000  1.0
  C  C207  1  0.46290000  0.17220000  0.32000000  1.0
  C  C208  1  0.50830000  0.18580000  0.43900000  1.0
  C  C209  1  0.52180000  0.23400000  0.43200000  1.0
  C  C210  1  0.48990000  0.26860000  0.30700000  1.0
  C  C211  1  0.38120000  0.19260000  0.06500000  1.0
  C  C212  1  0.89160000  0.27940000  0.03100000  1.0
  C  C213  1  0.87080000  0.21430000  0.33000000  1.0
  C  C214  1  0.84760000  0.17850000  0.52000000  1.0
  C  C215  1  0.87350000  0.13830000  0.62200000  1.0
  C  C216  1  0.85250000  0.10140000  0.81400000  1.0
  C  C217  1  0.87750000  0.06090000  0.92000000  1.0
  C  C218  1  0.92580000  0.05850000  0.82800000  1.0
  C  C219  1  0.94720000  0.09550000  0.63900000  1.0
  C  C220  1  0.92190000  0.13590000  0.53100000  1.0
  C  C221  1  0.94560000  0.17150000  0.34100000  1.0
  C  C222  1  0.91930000  0.21160000  0.23800000  1.0
  C  C223  1  0.05560000  0.24500000  0.68800000  1.0
  C  C224  1  0.06910000  0.29320000  0.69500000  1.0
  C  C225  1  0.03710000  0.32780000  0.82000000  1.0
  C  C226  1  0.99170000  0.31420000  0.93900000  1.0
  C  C227  1  0.97820000  0.26600000  0.93200000  1.0
  C  C228  1  0.01010000  0.23140000  0.80700000  1.0
  C  C229  1  0.11880000  0.30740000  0.56500000  1.0
  C  C230  1  0.39160000  0.77940000  0.53100000  1.0
  C  C231  1  0.37080000  0.71430000  0.83000000  1.0
  C  C232  1  0.34760000  0.67850000  0.02000000  1.0
  C  C233  1  0.37350000  0.63830000  0.12200000  1.0
  C  C234  1  0.35250000  0.60140000  0.31400000  1.0
  C  C235  1  0.37750000  0.56090000  0.42000000  1.0
  C  C236  1  0.42580000  0.55850000  0.32800000  1.0
  C  C237  1  0.44720000  0.59550000  0.13900000  1.0
  C  C238  1  0.42190000  0.63590000  0.03100000  1.0
  C  C239  1  0.44560000  0.67150000  0.84100000  1.0
  C  C240  1  0.41930000  0.71160000  0.73800000  1.0
  C  C241  1  0.55560000  0.74500000  0.18800000  1.0
  C  C242  1  0.56910000  0.79320000  0.19500000  1.0
  C  C243  1  0.53710000  0.82780000  0.32000000  1.0
  C  C244  1  0.49170000  0.81420000  0.43900000  1.0
  C  C245  1  0.47820000  0.76600000  0.43200000  1.0
  C  C246  1  0.51010000  0.73140000  0.30700000  1.0
  C  C247  1  0.61880000  0.80740000  0.06500000  1.0
  N  N248  1  0.25970000  0.14560000  0.81400000  1.0
  N  N249  1  0.25270000  0.06740000  0.94800000  1.0
  N  N250  1  0.75970000  0.64560000  0.31400000  1.0
  N  N251  1  0.75270000  0.56740000  0.44800000  1.0
  N  N252  1  0.74030000  0.85440000  0.81400000  1.0
  N  N253  1  0.74730000  0.93260000  0.94800000  1.0
  N  N254  1  0.24030000  0.35440000  0.31400000  1.0
  N  N255  1  0.24730000  0.43260000  0.44800000  1.0
  N  N256  1  0.14560000  0.74030000  0.18600000  1.0
  N  N257  1  0.06740000  0.74730000  0.05200000  1.0
  N  N258  1  0.64560000  0.24030000  0.68600000  1.0
  N  N259  1  0.56740000  0.24730000  0.55200000  1.0
  N  N260  1  0.85440000  0.25970000  0.18600000  1.0
  N  N261  1  0.93260000  0.25270000  0.05200000  1.0
  N  N262  1  0.35440000  0.75970000  0.68600000  1.0
  N  N263  1  0.43260000  0.75270000  0.55200000  1.0
  O  O264  1  0.21650000  0.25480000  0.89800000  1.0
  O  O265  1  0.27780000  0.85790000  0.57300000  1.0
  O  O266  1  0.34480000  0.87680000  0.64500000  1.0
  O  O267  1  0.34180000  0.86260000  0.23900000  1.0
  O  O268  1  0.71650000  0.75480000  0.39800000  1.0
  O  O269  1  0.77780000  0.35790000  0.07300000  1.0
  O  O270  1  0.84480000  0.37680000  0.14500000  1.0
  O  O271  1  0.84180000  0.36260000  0.73900000  1.0
  O  O272  1  0.78350000  0.74520000  0.89800000  1.0
  O  O273  1  0.72220000  0.14210000  0.57300000  1.0
  O  O274  1  0.65520000  0.12320000  0.64500000  1.0
  O  O275  1  0.65820000  0.13740000  0.23900000  1.0
  O  O276  1  0.28350000  0.24520000  0.39800000  1.0
  O  O277  1  0.22220000  0.64210000  0.07300000  1.0
  O  O278  1  0.15520000  0.62320000  0.14500000  1.0
  O  O279  1  0.15820000  0.63740000  0.73900000  1.0
  O  O280  1  0.25480000  0.78350000  0.10200000  1.0
  O  O281  1  0.85790000  0.72220000  0.42700000  1.0
  O  O282  1  0.87680000  0.65520000  0.35500000  1.0
  O  O283  1  0.86260000  0.65820000  0.76100000  1.0
  O  O284  1  0.75480000  0.28350000  0.60200000  1.0
  O  O285  1  0.35790000  0.22220000  0.92700000  1.0
  O  O286  1  0.37680000  0.15520000  0.85500000  1.0
  O  O287  1  0.36260000  0.15820000  0.26100000  1.0
  O  O288  1  0.74520000  0.21650000  0.10200000  1.0
  O  O289  1  0.14210000  0.27780000  0.42700000  1.0
  O  O290  1  0.12320000  0.34480000  0.35500000  1.0
  O  O291  1  0.13740000  0.34180000  0.76100000  1.0
  O  O292  1  0.24520000  0.71650000  0.60200000  1.0
  O  O293  1  0.64210000  0.77780000  0.92700000  1.0
  O  O294  1  0.62320000  0.84480000  0.85500000  1.0
  O  O295  1  0.63740000  0.84180000  0.26100000  1.0
