# generated using pymatgen
data_Zn4H16C34O15
_symmetry_space_group_name_H-M   'P 1'
_cell_length_a   10.30600000
_cell_length_b   26.23200000
_cell_length_c   27.77600000
_cell_angle_alpha   90.00000000
_cell_angle_beta   90.00000000
_cell_angle_gamma   91.84000000
_symmetry_Int_Tables_number   1
_chemical_formula_structural   Zn4H16C34O15
_chemical_formula_sum   'Zn16 H64 C136 O60'
_cell_volume   7505.28623739
_cell_formula_units_Z   4
loop_
 _symmetry_equiv_pos_site_id
 _symmetry_equiv_pos_as_xyz
  1  'x, y, z'
loop_
 _atom_site_type_symbol
 _atom_site_label
 _atom_site_symmetry_multiplicity
 _atom_site_fract_x
 _atom_site_fract_y
 _atom_site_fract_z
 _atom_site_occupancy
  Zn  Zn0  1  0.31448000  0.22739000  0.16849000  1.0
  Zn  Zn1  1  0.04443000  0.37254000  0.66291000  1.0
  Zn  Zn2  1  0.89193000  0.26662000  0.66326000  1.0
  Zn  Zn3  1  0.04077000  0.29993000  0.56787000  1.0
  Zn  Zn4  1  0.68552000  0.77261000  0.83151000  1.0
  Zn  Zn5  1  0.81448000  0.72739000  0.33151000  1.0
  Zn  Zn6  1  0.95557000  0.62746000  0.33709000  1.0
  Zn  Zn7  1  0.45557000  0.12746000  0.16291000  1.0
  Zn  Zn8  1  0.95923000  0.70007000  0.43213000  1.0
  Zn  Zn9  1  0.18552000  0.27261000  0.66849000  1.0
  Zn  Zn10  1  0.54077000  0.79993000  0.93213000  1.0
  Zn  Zn11  1  0.60807000  0.23338000  0.16326000  1.0
  Zn  Zn12  1  0.54443000  0.87254000  0.83709000  1.0
  Zn  Zn13  1  0.39193000  0.76662000  0.83674000  1.0
  Zn  Zn14  1  0.10807000  0.73338000  0.33674000  1.0
  Zn  Zn15  1  0.45923000  0.20007000  0.06787000  1.0
  H  H16  1  0.20790000  0.77250000  0.10300000  1.0
  H  H17  1  0.54790000  0.34190000  0.68420000  1.0
  H  H18  1  0.86120000  0.96300000  0.76550000  1.0
  H  H19  1  0.34180000  0.24540000  0.47240000  1.0
  H  H20  1  0.29210000  0.72750000  0.60300000  1.0
  H  H21  1  0.36310000  0.18960000  0.32280000  1.0
  H  H22  1  0.63510000  0.80280000  0.59440000  1.0
  H  H23  1  0.27110000  0.45130000  0.27230000  1.0
  H  H24  1  0.25110000  0.96510000  0.76900000  1.0
  H  H25  1  0.02450000  0.42170000  0.46600000  1.0
  H  H26  1  0.36490000  0.19720000  0.40560000  1.0
  H  H27  1  0.79680000  0.23580000  0.81500000  1.0
  H  H28  1  0.90080000  0.10110000  0.67370000  1.0
  H  H29  1  0.73150000  0.24400000  0.47390000  1.0
  H  H30  1  0.72890000  0.54870000  0.72770000  1.0
  H  H31  1  0.10720000  0.97950000  0.29410000  1.0
  H  H32  1  0.51490000  0.00830000  0.91880000  1.0
  H  H33  1  0.86490000  0.69720000  0.09440000  1.0
  H  H34  1  0.47550000  0.07830000  0.96600000  1.0
  H  H35  1  0.15820000  0.25460000  0.97240000  1.0
  H  H36  1  0.73490000  0.62990000  0.75780000  1.0
  H  H37  1  0.76850000  0.25600000  0.97390000  1.0
  H  H38  1  0.13510000  0.30280000  0.90560000  1.0
  H  H39  1  0.23150000  0.74400000  0.02610000  1.0
  H  H40  1  0.52450000  0.92170000  0.03400000  1.0
  H  H41  1  0.95210000  0.15810000  0.18420000  1.0
  H  H42  1  0.04790000  0.84190000  0.81580000  1.0
  H  H43  1  0.53570000  0.25470000  0.59750000  1.0
  H  H44  1  0.09920000  0.89890000  0.32630000  1.0
  H  H45  1  0.65820000  0.75460000  0.52760000  1.0
  H  H46  1  0.29680000  0.73580000  0.68500000  1.0
  H  H47  1  0.77110000  0.95130000  0.22770000  1.0
  H  H48  1  0.98510000  0.49170000  0.41880000  1.0
  H  H49  1  0.40080000  0.60110000  0.82630000  1.0
  H  H50  1  0.97550000  0.57830000  0.53400000  1.0
  H  H51  1  0.86310000  0.68960000  0.17720000  1.0
  H  H52  1  0.63880000  0.53700000  0.26550000  1.0
  H  H53  1  0.76510000  0.87010000  0.25780000  1.0
  H  H54  1  0.75110000  0.46510000  0.73100000  1.0
  H  H55  1  0.13690000  0.31040000  0.82280000  1.0
  H  H56  1  0.84180000  0.74540000  0.02760000  1.0
  H  H57  1  0.39280000  0.52050000  0.79410000  1.0
  H  H58  1  0.59920000  0.39890000  0.17370000  1.0
  H  H59  1  0.13880000  0.03700000  0.23450000  1.0
  H  H60  1  0.63690000  0.81040000  0.67720000  1.0
  H  H61  1  0.60720000  0.47950000  0.20590000  1.0
  H  H62  1  0.20320000  0.76420000  0.18500000  1.0
  H  H63  1  0.45210000  0.65810000  0.31580000  1.0
  H  H64  1  0.96430000  0.24530000  0.09750000  1.0
  H  H65  1  0.24890000  0.53490000  0.26900000  1.0
  H  H66  1  0.22890000  0.04870000  0.77230000  1.0
  H  H67  1  0.26510000  0.37010000  0.24220000  1.0
  H  H68  1  0.48510000  0.99170000  0.08120000  1.0
  H  H69  1  0.79210000  0.22750000  0.89700000  1.0
  H  H70  1  0.89280000  0.02050000  0.70590000  1.0
  H  H71  1  0.26850000  0.75600000  0.52610000  1.0
  H  H72  1  0.70320000  0.26420000  0.31500000  1.0
  H  H73  1  0.01490000  0.50830000  0.58120000  1.0
  H  H74  1  0.46430000  0.74530000  0.40250000  1.0
  H  H75  1  0.74890000  0.03490000  0.23100000  1.0
  H  H76  1  0.70790000  0.27250000  0.39700000  1.0
  H  H77  1  0.03570000  0.75470000  0.90250000  1.0
  H  H78  1  0.23490000  0.12990000  0.74220000  1.0
  H  H79  1  0.36120000  0.46300000  0.73450000  1.0
  C  C80  1  0.29490000  0.25889000  0.56575000  1.0
  C  C81  1  0.86290000  0.24410000  0.88242000  1.0
  C  C82  1  0.98720000  0.54675000  0.51961000  1.0
  C  C83  1  0.15170000  0.74951000  0.96042000  1.0
  C  C84  1  0.16570000  0.10783000  0.73441000  1.0
  C  C85  1  0.41960000  0.25155000  0.53892000  1.0
  C  C86  1  0.53690000  0.24248000  0.46359000  1.0
  C  C87  1  0.99300000  0.49570000  0.45191000  1.0
  C  C88  1  0.77690000  0.25418000  0.56723000  1.0
  C  C89  1  0.08040000  0.24845000  0.03892000  1.0
  C  C90  1  0.84830000  0.25049000  0.03958000  1.0
  C  C91  1  0.66570000  0.60783000  0.76559000  1.0
  C  C92  1  0.33230000  0.60006000  0.29467000  1.0
  C  C93  1  0.56140000  0.55287000  0.27224000  1.0
  C  C94  1  0.56660000  0.78870000  0.61233000  1.0
  C  C95  1  0.57990000  0.75365000  0.51089000  1.0
  C  C96  1  0.42740000  0.32205000  0.18547000  1.0
  C  C97  1  0.46430000  0.76327000  0.58918000  1.0
  C  C98  1  0.58040000  0.74845000  0.46108000  1.0
  C  C99  1  0.78990000  0.37543000  0.68888000  1.0
  C  C100  1  0.03170000  0.72630000  0.18975000  1.0
  C  C101  1  0.46830000  0.77370000  0.68975000  1.0
  C  C102  1  0.33810000  0.44099000  0.25250000  1.0
  C  C103  1  0.20510000  0.24111000  0.06575000  1.0
  C  C104  1  0.55000000  0.37461000  0.69719000  1.0
  C  C105  1  0.83430000  0.89217000  0.26559000  1.0
  C  C106  1  0.91960000  0.75155000  0.96108000  1.0
  C  C107  1  0.96410000  0.24769000  0.06407000  1.0
  C  C108  1  0.06880000  0.12442000  0.70492000  1.0
  C  C109  1  0.28990000  0.87543000  0.81112000  1.0
  C  C110  1  0.97200000  0.27923000  0.75666000  1.0
  C  C111  1  0.66770000  0.39994000  0.70533000  1.0
  C  C112  1  0.53310000  0.40911000  0.19390000  1.0
  C  C113  1  0.92010000  0.74635000  0.01089000  1.0
  C  C114  1  0.96730000  0.58920000  0.43992000  1.0
  C  C115  1  0.96320000  0.04225000  0.71289000  1.0
  C  C116  1  0.96830000  0.27370000  0.81025000  1.0
  C  C117  1  0.03590000  0.75231000  0.93593000  1.0
  C  C118  1  0.50700000  0.00430000  0.95191000  1.0
  C  C119  1  0.03680000  0.95775000  0.28711000  1.0
  C  C120  1  0.13440000  0.75080000  0.16685000  1.0
  C  C121  1  0.06120000  0.02504000  0.74199000  1.0
  C  C122  1  0.84750000  0.25482000  0.98999000  1.0
  C  C123  1  0.51520000  0.95724000  0.97110000  1.0
  C  C124  1  0.93480000  0.89815000  0.79159000  1.0
  C  C125  1  0.65170000  0.24951000  0.53958000  1.0
  C  C126  1  0.42010000  0.24635000  0.48911000  1.0
  C  C127  1  0.69030000  0.62979000  0.30390000  1.0
  C  C128  1  0.36560000  0.74920000  0.66685000  1.0
  C  C129  1  0.43480000  0.39815000  0.70841000  1.0
  C  C130  1  0.83810000  0.94099000  0.24750000  1.0
  C  C131  1  0.96310000  0.25752000  0.96359000  1.0
  C  C132  1  0.05680000  0.97291000  0.76282000  1.0
  C  C133  1  0.47200000  0.77923000  0.74334000  1.0
  C  C134  1  0.57260000  0.67795000  0.81453000  1.0
  C  C135  1  0.07990000  0.25365000  0.98911000  1.0
  C  C136  1  0.93340000  0.71130000  0.11233000  1.0
  C  C137  1  0.01280000  0.45325000  0.48039000  1.0
  C  C138  1  0.06730000  0.29340000  0.83776000  1.0
  C  C139  1  0.16770000  0.89994000  0.79467000  1.0
  C  C140  1  0.63710000  0.25590000  0.38242000  1.0
  C  C141  1  0.46690000  0.59089000  0.80610000  1.0
  C  C142  1  0.33430000  0.39217000  0.23441000  1.0
  C  C143  1  0.65250000  0.24518000  0.48999000  1.0
  C  C144  1  0.22310000  0.74582000  0.43277000  1.0
  C  C145  1  0.43880000  0.47496000  0.24199000  1.0
  C  C146  1  0.56120000  0.52504000  0.75801000  1.0
  C  C147  1  0.43120000  0.37558000  0.20492000  1.0
  C  C148  1  0.13710000  0.75590000  0.11758000  1.0
  C  C149  1  0.06520000  0.10185000  0.20841000  1.0
  C  C150  1  0.43270000  0.20660000  0.33776000  1.0
  C  C151  1  0.86560000  0.24920000  0.83315000  1.0
  C  C152  1  0.53270000  0.91080000  0.93992000  1.0
  C  C153  1  0.21010000  0.62457000  0.31112000  1.0
  C  C154  1  0.17140000  0.94854000  0.77465000  1.0
  C  C155  1  0.46310000  0.75752000  0.53641000  1.0
  C  C156  1  0.93120000  0.87558000  0.29508000  1.0
  C  C157  1  0.67140000  0.44854000  0.72535000  1.0
  C  C158  1  0.56730000  0.79340000  0.66224000  1.0
  C  C159  1  0.83230000  0.10006000  0.20533000  1.0
  C  C160  1  0.93860000  0.94713000  0.77224000  1.0
  C  C161  1  0.06140000  0.05287000  0.22776000  1.0
  C  C162  1  0.15250000  0.74518000  0.01001000  1.0
  C  C163  1  0.56880000  0.62442000  0.79508000  1.0
  C  C164  1  0.48720000  0.04675000  0.98039000  1.0
  C  C165  1  0.49300000  0.99570000  0.04809000  1.0
  C  C166  1  0.05000000  0.87461000  0.80281000  1.0
  C  C167  1  0.71010000  0.12457000  0.18888000  1.0
  C  C168  1  0.70510000  0.74111000  0.43425000  1.0
  C  C169  1  0.00700000  0.50430000  0.54809000  1.0
  C  C170  1  0.92740000  0.82205000  0.31453000  1.0
  C  C171  1  0.30970000  0.37021000  0.69610000  1.0
  C  C172  1  0.46320000  0.54225000  0.78711000  1.0
  C  C173  1  0.56520000  0.60185000  0.29159000  1.0
  C  C174  1  0.53170000  0.22630000  0.31025000  1.0
  C  C175  1  0.34750000  0.75482000  0.51001000  1.0
  C  C176  1  0.94320000  0.02709000  0.23718000  1.0
  C  C177  1  0.55680000  0.47291000  0.73718000  1.0
  C  C178  1  0.52800000  0.22077000  0.25666000  1.0
  C  C179  1  0.48480000  0.04276000  0.02890000  1.0
  C  C180  1  0.02800000  0.72077000  0.24334000  1.0
  C  C181  1  0.82860000  0.05146000  0.22535000  1.0
  C  C182  1  0.93880000  0.97496000  0.25801000  1.0
  C  C183  1  0.01520000  0.45724000  0.52890000  1.0
  C  C184  1  0.63440000  0.25080000  0.33315000  1.0
  C  C185  1  0.43860000  0.44713000  0.72776000  1.0
  C  C186  1  0.53680000  0.45775000  0.21289000  1.0
  C  C187  1  0.36290000  0.74410000  0.61758000  1.0
  C  C188  1  0.46730000  0.08920000  0.06008000  1.0
  C  C189  1  0.03270000  0.41080000  0.56008000  1.0
  C  C190  1  0.03690000  0.74248000  0.03641000  1.0
  C  C191  1  0.53570000  0.23673000  0.41082000  1.0
  C  C192  1  0.96430000  0.26327000  0.91082000  1.0
  C  C193  1  0.72310000  0.24582000  0.06723000  1.0
  C  C194  1  0.06660000  0.28870000  0.88767000  1.0
  C  C195  1  0.51280000  0.95325000  0.01961000  1.0
  C  C196  1  0.45000000  0.62539000  0.30281000  1.0
  C  C197  1  0.43340000  0.21130000  0.38767000  1.0
  C  C198  1  0.27690000  0.75418000  0.93277000  1.0
  C  C199  1  0.44320000  0.52709000  0.26282000  1.0
  C  C200  1  0.34830000  0.75049000  0.46042000  1.0
  C  C201  1  0.19030000  0.12979000  0.19610000  1.0
  C  C202  1  0.95000000  0.12539000  0.19719000  1.0
  C  C203  1  0.79490000  0.75889000  0.93425000  1.0
  C  C204  1  0.98480000  0.54276000  0.47110000  1.0
  C  C205  1  0.46410000  0.74769000  0.43593000  1.0
  C  C206  1  0.93270000  0.70660000  0.16224000  1.0
  C  C207  1  0.66190000  0.55901000  0.74750000  1.0
  C  C208  1  0.32860000  0.55146000  0.27465000  1.0
  C  C209  1  0.03570000  0.73673000  0.08918000  1.0
  C  C210  1  0.53590000  0.25231000  0.56407000  1.0
  C  C211  1  0.16190000  0.05901000  0.75250000  1.0
  C  C212  1  0.03310000  0.90911000  0.30610000  1.0
  C  C213  1  0.96690000  0.09089000  0.69390000  1.0
  C  C214  1  0.80970000  0.87021000  0.80390000  1.0
  C  C215  1  0.07260000  0.17795000  0.68547000  1.0
  O  O216  1  0.62210000  0.23303000  0.04424000  1.0
  O  O217  1  0.03590000  0.36828000  0.53896000  1.0
  O  O218  1  0.32720000  0.29500000  0.19573000  1.0
  O  O219  1  0.82720000  0.79500000  0.30427000  1.0
  O  O220  1  0.62220000  0.24053000  0.23345000  1.0
  O  O221  1  0.39610000  0.89923000  0.80275000  1.0
  O  O222  1  0.19560000  0.26968000  0.54094000  1.0
  O  O223  1  0.27020000  0.74523000  0.88852000  1.0
  O  O224  1  0.22160000  0.66584000  0.33268000  1.0
  O  O225  1  0.60390000  0.10077000  0.19725000  1.0
  O  O226  1  0.72980000  0.25477000  0.11148000  1.0
  O  O227  1  0.72160000  0.16584000  0.16732000  1.0
  O  O228  1  0.12210000  0.73303000  0.45576000  1.0
  O  O229  1  0.77020000  0.24523000  0.61148000  1.0
  O  O230  1  0.45771000  0.19544000  0.13662000  1.0
  O  O231  1  0.45840000  0.08201000  0.10414000  1.0
  O  O232  1  0.93230000  0.69919000  0.26196000  1.0
  O  O233  1  0.31580000  0.32303000  0.69061000  1.0
  O  O234  1  0.87790000  0.26697000  0.54424000  1.0
  O  O235  1  0.68420000  0.67697000  0.30939000  1.0
  O  O236  1  0.79010000  0.60333000  0.30865000  1.0
  O  O237  1  0.29010000  0.10333000  0.19135000  1.0
  O  O238  1  0.37790000  0.76697000  0.95576000  1.0
  O  O239  1  0.81580000  0.82303000  0.80939000  1.0
  O  O240  1  0.02130000  0.80730000  0.33823000  1.0
  O  O241  1  0.46410000  0.13172000  0.03896000  1.0
  O  O242  1  0.20170000  0.24570000  0.11004000  1.0
  O  O243  1  0.06770000  0.30081000  0.73804000  1.0
  O  O244  1  0.53590000  0.86828000  0.96104000  1.0
  O  O245  1  0.10390000  0.60077000  0.30275000  1.0
  O  O246  1  0.70990000  0.89667000  0.80865000  1.0
  O  O247  1  0.04229000  0.30456000  0.63662000  1.0
  O  O248  1  0.54229000  0.80456000  0.86338000  1.0
  O  O249  1  0.20990000  0.39667000  0.69135000  1.0
  O  O250  1  0.18420000  0.17697000  0.19061000  1.0
  O  O251  1  0.87780000  0.25947000  0.73345000  1.0
  O  O252  1  0.95771000  0.69544000  0.36338000  1.0
  O  O253  1  0.67280000  0.70500000  0.80427000  1.0
  O  O254  1  0.80440000  0.73032000  0.45906000  1.0
  O  O255  1  0.29830000  0.25430000  0.61004000  1.0
  O  O256  1  0.69560000  0.76968000  0.95906000  1.0
  O  O257  1  0.54160000  0.91799000  0.89586000  1.0
  O  O258  1  0.47870000  0.69270000  0.83823000  1.0
  O  O259  1  0.30440000  0.23032000  0.04094000  1.0
  O  O260  1  0.52130000  0.30730000  0.16177000  1.0
  O  O261  1  0.95840000  0.58201000  0.39586000  1.0
  O  O262  1  0.43230000  0.19919000  0.23804000  1.0
  O  O263  1  0.56770000  0.80081000  0.76196000  1.0
  O  O264  1  0.77840000  0.33416000  0.66732000  1.0
  O  O265  1  0.79830000  0.75430000  0.88996000  1.0
  O  O266  1  0.22980000  0.75477000  0.38852000  1.0
  O  O267  1  0.12220000  0.74053000  0.26655000  1.0
  O  O268  1  0.37780000  0.75947000  0.76655000  1.0
  O  O269  1  0.70170000  0.74570000  0.38996000  1.0
  O  O270  1  0.97870000  0.19270000  0.66177000  1.0
  O  O271  1  0.17280000  0.20500000  0.69573000  1.0
  O  O272  1  0.96410000  0.63172000  0.46104000  1.0
  O  O273  1  0.27840000  0.83416000  0.83268000  1.0
  O  O274  1  0.04160000  0.41799000  0.60414000  1.0
  O  O275  1  0.89610000  0.39923000  0.69725000  1.0
