# generated using pymatgen
data_NiMo2H14C22N3O5
_symmetry_space_group_name_H-M   'P 1'
_cell_length_a   8.98640000
_cell_length_b   27.78850000
_cell_length_c   10.95300000
_cell_angle_alpha   90.00000000
_cell_angle_beta   99.19600000
_cell_angle_gamma   90.00000000
_symmetry_Int_Tables_number   1
_chemical_formula_structural   NiMo2H14C22N3O5
_chemical_formula_sum   'Ni4 Mo8 H56 C88 N12 O20'
_cell_volume   2700.01361959
_cell_formula_units_Z   4
loop_
 _symmetry_equiv_pos_site_id
 _symmetry_equiv_pos_as_xyz
  1  'x, y, z'
loop_
 _atom_site_type_symbol
 _atom_site_label
 _atom_site_symmetry_multiplicity
 _atom_site_fract_x
 _atom_site_fract_y
 _atom_site_fract_z
 _atom_site_occupancy
  Ni  Ni0  1  0.25000000  0.61722000  0.00000000  1.0
  Ni  Ni1  1  0.75000000  0.11722000  0.50000000  1.0
  Ni  Ni2  1  0.75000000  0.38278000  0.00000000  1.0
  Ni  Ni3  1  0.25000000  0.88278000  0.50000000  1.0
  Mo  Mo4  1  0.58569000  0.64903000  0.87405000  1.0
  Mo  Mo5  1  0.08569000  0.14903000  0.37405000  1.0
  Mo  Mo6  1  0.91431000  0.64903000  0.12595000  1.0
  Mo  Mo7  1  0.41431000  0.14903000  0.62595000  1.0
  Mo  Mo8  1  0.41431000  0.35097000  0.12595000  1.0
  Mo  Mo9  1  0.91431000  0.85097000  0.62595000  1.0
  Mo  Mo10  1  0.08569000  0.35097000  0.87405000  1.0
  Mo  Mo11  1  0.58569000  0.85097000  0.37405000  1.0
  H  H12  1  0.25140000  0.51330000  0.11620000  1.0
  H  H13  1  0.39770000  0.46760000  0.26210000  1.0
  H  H14  1  0.66910000  0.58160000  0.34060000  1.0
  H  H15  1  0.52140000  0.62260000  0.18620000  1.0
  H  H16  1  0.58140000  0.42470000  0.35580000  1.0
  H  H17  1  0.70470000  0.35250000  0.31460000  1.0
  H  H18  1  0.69140000  0.26950000  0.31520000  1.0
  H  H19  1  0.75140000  0.01330000  0.61620000  1.0
  H  H20  1  0.89770000  0.96760000  0.76210000  1.0
  H  H21  1  0.16910000  0.08160000  0.84060000  1.0
  H  H22  1  0.02140000  0.12260000  0.68620000  1.0
  H  H23  1  0.08140000  0.92470000  0.85580000  1.0
  H  H24  1  0.20470000  0.85250000  0.81460000  1.0
  H  H25  1  0.19140000  0.76950000  0.81520000  1.0
  H  H26  1  0.24860000  0.51330000  0.88380000  1.0
  H  H27  1  0.10230000  0.46760000  0.73790000  1.0
  H  H28  1  0.83090000  0.58160000  0.65940000  1.0
  H  H29  1  0.97860000  0.62260000  0.81380000  1.0
  H  H30  1  0.91860000  0.42470000  0.64420000  1.0
  H  H31  1  0.79530000  0.35250000  0.68540000  1.0
  H  H32  1  0.80860000  0.26950000  0.68480000  1.0
  H  H33  1  0.74860000  0.01330000  0.38380000  1.0
  H  H34  1  0.60230000  0.96760000  0.23790000  1.0
  H  H35  1  0.33090000  0.08160000  0.15940000  1.0
  H  H36  1  0.47860000  0.12260000  0.31380000  1.0
  H  H37  1  0.41860000  0.92470000  0.14420000  1.0
  H  H38  1  0.29530000  0.85250000  0.18540000  1.0
  H  H39  1  0.30860000  0.76950000  0.18480000  1.0
  H  H40  1  0.74860000  0.48670000  0.88380000  1.0
  H  H41  1  0.60230000  0.53240000  0.73790000  1.0
  H  H42  1  0.33090000  0.41840000  0.65940000  1.0
  H  H43  1  0.47860000  0.37740000  0.81380000  1.0
  H  H44  1  0.41860000  0.57530000  0.64420000  1.0
  H  H45  1  0.29530000  0.64750000  0.68540000  1.0
  H  H46  1  0.30860000  0.73050000  0.68480000  1.0
  H  H47  1  0.24860000  0.98670000  0.38380000  1.0
  H  H48  1  0.10230000  0.03240000  0.23790000  1.0
  H  H49  1  0.83090000  0.91840000  0.15940000  1.0
  H  H50  1  0.97860000  0.87740000  0.31380000  1.0
  H  H51  1  0.91860000  0.07530000  0.14420000  1.0
  H  H52  1  0.79530000  0.14750000  0.18540000  1.0
  H  H53  1  0.80860000  0.23050000  0.18480000  1.0
  H  H54  1  0.75140000  0.48670000  0.11620000  1.0
  H  H55  1  0.89770000  0.53240000  0.26210000  1.0
  H  H56  1  0.16910000  0.41840000  0.34060000  1.0
  H  H57  1  0.02140000  0.37740000  0.18620000  1.0
  H  H58  1  0.08140000  0.57530000  0.35580000  1.0
  H  H59  1  0.20470000  0.64750000  0.31460000  1.0
  H  H60  1  0.19140000  0.73050000  0.31520000  1.0
  H  H61  1  0.25140000  0.98670000  0.61620000  1.0
  H  H62  1  0.39770000  0.03240000  0.76210000  1.0
  H  H63  1  0.66910000  0.91840000  0.84060000  1.0
  H  H64  1  0.52140000  0.87740000  0.68620000  1.0
  H  H65  1  0.58140000  0.07530000  0.85580000  1.0
  H  H66  1  0.70470000  0.14750000  0.81460000  1.0
  H  H67  1  0.69140000  0.23050000  0.81520000  1.0
  C  C68  1  0.33800000  0.52701000  0.16040000  1.0
  C  C69  1  0.42470000  0.49932000  0.24960000  1.0
  C  C70  1  0.55240000  0.51900000  0.32070000  1.0
  C  C71  1  0.58580000  0.56648000  0.29510000  1.0
  C  C72  1  0.49530000  0.59108000  0.20240000  1.0
  C  C73  1  0.65370000  0.49093000  0.41620000  1.0
  C  C74  1  0.65020000  0.44084000  0.41420000  1.0
  C  C75  1  0.72120000  0.33597000  0.38930000  1.0
  C  C76  1  0.71670000  0.28610000  0.38940000  1.0
  C  C77  1  0.83800000  0.02701000  0.66040000  1.0
  C  C78  1  0.92470000  0.99932000  0.74960000  1.0
  C  C79  1  0.05240000  0.01900000  0.82070000  1.0
  C  C80  1  0.08580000  0.06648000  0.79510000  1.0
  C  C81  1  0.99530000  0.09108000  0.70240000  1.0
  C  C82  1  0.15370000  0.99093000  0.91620000  1.0
  C  C83  1  0.15020000  0.94084000  0.91420000  1.0
  C  C84  1  0.22120000  0.83597000  0.88930000  1.0
  C  C85  1  0.21670000  0.78610000  0.88940000  1.0
  C  C86  1  0.16200000  0.52701000  0.83960000  1.0
  C  C87  1  0.07530000  0.49932000  0.75040000  1.0
  C  C88  1  0.94760000  0.51900000  0.67930000  1.0
  C  C89  1  0.91420000  0.56648000  0.70490000  1.0
  C  C90  1  0.00470000  0.59108000  0.79760000  1.0
  C  C91  1  0.84630000  0.49093000  0.58380000  1.0
  C  C92  1  0.84980000  0.44084000  0.58580000  1.0
  C  C93  1  0.77880000  0.33597000  0.61070000  1.0
  C  C94  1  0.78330000  0.28610000  0.61060000  1.0
  C  C95  1  0.66200000  0.02701000  0.33960000  1.0
  C  C96  1  0.57530000  0.99932000  0.25040000  1.0
  C  C97  1  0.44760000  0.01900000  0.17930000  1.0
  C  C98  1  0.41420000  0.06648000  0.20490000  1.0
  C  C99  1  0.50470000  0.09108000  0.29760000  1.0
  C  C100  1  0.34630000  0.99093000  0.08380000  1.0
  C  C101  1  0.34980000  0.94084000  0.08580000  1.0
  C  C102  1  0.27880000  0.83597000  0.11070000  1.0
  C  C103  1  0.28330000  0.78610000  0.11060000  1.0
  C  C104  1  0.75000000  0.41499000  0.50000000  1.0
  C  C105  1  0.75000000  0.36161000  0.50000000  1.0
  C  C106  1  0.75000000  0.26070000  0.50000000  1.0
  C  C107  1  0.75000000  0.20669000  0.50000000  1.0
  C  C108  1  0.25000000  0.91499000  0.00000000  1.0
  C  C109  1  0.25000000  0.86161000  0.00000000  1.0
  C  C110  1  0.25000000  0.76070000  0.00000000  1.0
  C  C111  1  0.25000000  0.70669000  0.00000000  1.0
  C  C112  1  0.66200000  0.47299000  0.83960000  1.0
  C  C113  1  0.57530000  0.50068000  0.75040000  1.0
  C  C114  1  0.44760000  0.48100000  0.67930000  1.0
  C  C115  1  0.41420000  0.43352000  0.70490000  1.0
  C  C116  1  0.50470000  0.40892000  0.79760000  1.0
  C  C117  1  0.34630000  0.50907000  0.58380000  1.0
  C  C118  1  0.34980000  0.55916000  0.58580000  1.0
  C  C119  1  0.27880000  0.66403000  0.61070000  1.0
  C  C120  1  0.28330000  0.71390000  0.61060000  1.0
  C  C121  1  0.16200000  0.97299000  0.33960000  1.0
  C  C122  1  0.07530000  0.00068000  0.25040000  1.0
  C  C123  1  0.94760000  0.98100000  0.17930000  1.0
  C  C124  1  0.91420000  0.93352000  0.20490000  1.0
  C  C125  1  0.00470000  0.90892000  0.29760000  1.0
  C  C126  1  0.84630000  0.00907000  0.08380000  1.0
  C  C127  1  0.84980000  0.05916000  0.08580000  1.0
  C  C128  1  0.77880000  0.16403000  0.11070000  1.0
  C  C129  1  0.78330000  0.21390000  0.11060000  1.0
  C  C130  1  0.83800000  0.47299000  0.16040000  1.0
  C  C131  1  0.92470000  0.50068000  0.24960000  1.0
  C  C132  1  0.05240000  0.48100000  0.32070000  1.0
  C  C133  1  0.08580000  0.43352000  0.29510000  1.0
  C  C134  1  0.99530000  0.40892000  0.20240000  1.0
  C  C135  1  0.15370000  0.50907000  0.41620000  1.0
  C  C136  1  0.15020000  0.55916000  0.41420000  1.0
  C  C137  1  0.22120000  0.66403000  0.38930000  1.0
  C  C138  1  0.21670000  0.71390000  0.38940000  1.0
  C  C139  1  0.33800000  0.97299000  0.66040000  1.0
  C  C140  1  0.42470000  0.00068000  0.74960000  1.0
  C  C141  1  0.55240000  0.98100000  0.82070000  1.0
  C  C142  1  0.58580000  0.93352000  0.79510000  1.0
  C  C143  1  0.49530000  0.90892000  0.70240000  1.0
  C  C144  1  0.65370000  0.00907000  0.91620000  1.0
  C  C145  1  0.65020000  0.05916000  0.91420000  1.0
  C  C146  1  0.72120000  0.16403000  0.88930000  1.0
  C  C147  1  0.71670000  0.21390000  0.88940000  1.0
  C  C148  1  0.25000000  0.58501000  0.50000000  1.0
  C  C149  1  0.25000000  0.63839000  0.50000000  1.0
  C  C150  1  0.25000000  0.73930000  0.50000000  1.0
  C  C151  1  0.25000000  0.79331000  0.50000000  1.0
  C  C152  1  0.75000000  0.08501000  0.00000000  1.0
  C  C153  1  0.75000000  0.13839000  0.00000000  1.0
  C  C154  1  0.75000000  0.23930000  0.00000000  1.0
  C  C155  1  0.75000000  0.29331000  0.00000000  1.0
  N  N156  1  0.37160000  0.57232000  0.13399000  1.0
  N  N157  1  0.87160000  0.07232000  0.63399000  1.0
  N  N158  1  0.12840000  0.57232000  0.86601000  1.0
  N  N159  1  0.62840000  0.07232000  0.36601000  1.0
  N  N160  1  0.75000000  0.51590000  0.50000000  1.0
  N  N161  1  0.25000000  0.01590000  0.00000000  1.0
  N  N162  1  0.62840000  0.42768000  0.86601000  1.0
  N  N163  1  0.12840000  0.92768000  0.36601000  1.0
  N  N164  1  0.87160000  0.42768000  0.13399000  1.0
  N  N165  1  0.37160000  0.92768000  0.63399000  1.0
  N  N166  1  0.25000000  0.48410000  0.50000000  1.0
  N  N167  1  0.75000000  0.98410000  0.00000000  1.0
  O  O168  1  0.66937000  0.18396000  0.41340000  1.0
  O  O169  1  0.43090000  0.61583000  0.90657000  1.0
  O  O170  1  0.16937000  0.68396000  0.91340000  1.0
  O  O171  1  0.93090000  0.11583000  0.40657000  1.0
  O  O172  1  0.83063000  0.18396000  0.58660000  1.0
  O  O173  1  0.06910000  0.61583000  0.09343000  1.0
  O  O174  1  0.33063000  0.68396000  0.08660000  1.0
  O  O175  1  0.56910000  0.11583000  0.59343000  1.0
  O  O176  1  0.75000000  0.63799000  0.00000000  1.0
  O  O177  1  0.25000000  0.13799000  0.50000000  1.0
  O  O178  1  0.33063000  0.81604000  0.58660000  1.0
  O  O179  1  0.56910000  0.38417000  0.09343000  1.0
  O  O180  1  0.83063000  0.31604000  0.08660000  1.0
  O  O181  1  0.06910000  0.88417000  0.59343000  1.0
  O  O182  1  0.16937000  0.81604000  0.41340000  1.0
  O  O183  1  0.93090000  0.38417000  0.90657000  1.0
  O  O184  1  0.66937000  0.31604000  0.91340000  1.0
  O  O185  1  0.43090000  0.88417000  0.40657000  1.0
  O  O186  1  0.25000000  0.36201000  0.00000000  1.0
  O  O187  1  0.75000000  0.86201000  0.50000000  1.0
