# generated using pymatgen
data_DyH7(C5O2)3
_symmetry_space_group_name_H-M   'P 1'
_cell_length_a   14.15450000
_cell_length_b   14.15450000
_cell_length_c   62.93800000
_cell_angle_alpha   90.00000000
_cell_angle_beta   90.00000000
_cell_angle_gamma   90.00000000
_symmetry_Int_Tables_number   1
_chemical_formula_structural   DyH7(C5O2)3
_chemical_formula_sum   'Dy24 H168 C360 O144'
_cell_volume   12609.62013379
_cell_formula_units_Z   24
loop_
 _symmetry_equiv_pos_site_id
 _symmetry_equiv_pos_as_xyz
  1  'x, y, z'
loop_
 _atom_site_type_symbol
 _atom_site_label
 _atom_site_symmetry_multiplicity
 _atom_site_fract_x
 _atom_site_fract_y
 _atom_site_fract_z
 _atom_site_occupancy
  Dy  Dy0  1  0.72283000  0.48884000  0.43889000  1.0
  Dy  Dy1  1  0.22283000  0.98884000  0.93889000  1.0
  Dy  Dy2  1  0.27717000  0.51116000  0.43889000  1.0
  Dy  Dy3  1  0.77717000  0.01116000  0.93889000  1.0
  Dy  Dy4  1  0.48884000  0.27717000  0.56111000  1.0
  Dy  Dy5  1  0.98884000  0.77717000  0.06111000  1.0
  Dy  Dy6  1  0.51116000  0.72283000  0.56111000  1.0
  Dy  Dy7  1  0.01116000  0.22283000  0.06111000  1.0
  Dy  Dy8  1  0.77717000  0.48884000  0.31111000  1.0
  Dy  Dy9  1  0.27717000  0.98884000  0.81111000  1.0
  Dy  Dy10  1  0.22283000  0.51116000  0.31111000  1.0
  Dy  Dy11  1  0.72283000  0.01116000  0.81111000  1.0
  Dy  Dy12  1  0.01116000  0.27717000  0.18889000  1.0
  Dy  Dy13  1  0.51116000  0.77717000  0.68889000  1.0
  Dy  Dy14  1  0.98884000  0.72283000  0.18889000  1.0
  Dy  Dy15  1  0.48884000  0.22283000  0.68889000  1.0
  Dy  Dy16  1  0.00000000  0.50000000  0.45908000  1.0
  Dy  Dy17  1  0.50000000  0.00000000  0.95908000  1.0
  Dy  Dy18  1  0.50000000  0.00000000  0.54092000  1.0
  Dy  Dy19  1  0.00000000  0.50000000  0.04092000  1.0
  Dy  Dy20  1  0.50000000  0.50000000  0.29092000  1.0
  Dy  Dy21  1  0.00000000  0.00000000  0.79092000  1.0
  Dy  Dy22  1  0.00000000  0.00000000  0.20908000  1.0
  Dy  Dy23  1  0.50000000  0.50000000  0.70908000  1.0
  H  H24  1  0.70350000  0.67580000  0.50090000  1.0
  H  H25  1  0.72100000  0.95450000  0.51070000  1.0
  H  H26  1  0.82650000  0.96640000  0.48350000  1.0
  H  H27  1  0.00190000  0.90920000  0.47290000  1.0
  H  H28  1  0.10440000  0.92240000  0.44470000  1.0
  H  H29  1  0.06750000  0.85650000  0.41210000  1.0
  H  H30  1  0.81980000  0.76850000  0.43590000  1.0
  H  H31  1  0.91270000  0.86280000  0.38050000  1.0
  H  H32  1  0.86610000  0.78170000  0.35120000  1.0
  H  H33  1  0.87010000  0.54160000  0.38410000  1.0
  H  H34  1  0.20350000  0.17580000  0.00090000  1.0
  H  H35  1  0.22100000  0.45450000  0.01070000  1.0
  H  H36  1  0.32650000  0.46640000  0.98350000  1.0
  H  H37  1  0.50190000  0.40920000  0.97290000  1.0
  H  H38  1  0.60440000  0.42240000  0.94470000  1.0
  H  H39  1  0.56750000  0.35650000  0.91210000  1.0
  H  H40  1  0.31980000  0.26850000  0.93590000  1.0
  H  H41  1  0.41270000  0.36280000  0.88050000  1.0
  H  H42  1  0.36610000  0.28170000  0.85120000  1.0
  H  H43  1  0.37010000  0.04160000  0.88410000  1.0
  H  H44  1  0.29650000  0.32420000  0.50090000  1.0
  H  H45  1  0.27900000  0.04550000  0.51070000  1.0
  H  H46  1  0.17350000  0.03360000  0.48350000  1.0
  H  H47  1  0.99810000  0.09080000  0.47290000  1.0
  H  H48  1  0.89560000  0.07760000  0.44470000  1.0
  H  H49  1  0.93250000  0.14350000  0.41210000  1.0
  H  H50  1  0.18020000  0.23150000  0.43590000  1.0
  H  H51  1  0.08730000  0.13720000  0.38050000  1.0
  H  H52  1  0.13390000  0.21830000  0.35120000  1.0
  H  H53  1  0.12990000  0.45840000  0.38410000  1.0
  H  H54  1  0.79650000  0.82420000  0.00090000  1.0
  H  H55  1  0.77900000  0.54550000  0.01070000  1.0
  H  H56  1  0.67350000  0.53360000  0.98350000  1.0
  H  H57  1  0.49810000  0.59080000  0.97290000  1.0
  H  H58  1  0.39560000  0.57760000  0.94470000  1.0
  H  H59  1  0.43250000  0.64350000  0.91210000  1.0
  H  H60  1  0.68020000  0.73150000  0.93590000  1.0
  H  H61  1  0.58730000  0.63720000  0.88050000  1.0
  H  H62  1  0.63390000  0.71830000  0.85120000  1.0
  H  H63  1  0.62990000  0.95840000  0.88410000  1.0
  H  H64  1  0.67580000  0.29650000  0.49910000  1.0
  H  H65  1  0.95450000  0.27900000  0.48930000  1.0
  H  H66  1  0.96640000  0.17350000  0.51650000  1.0
  H  H67  1  0.90920000  0.99810000  0.52710000  1.0
  H  H68  1  0.92240000  0.89560000  0.55530000  1.0
  H  H69  1  0.85650000  0.93250000  0.58790000  1.0
  H  H70  1  0.76850000  0.18020000  0.56410000  1.0
  H  H71  1  0.86280000  0.08730000  0.61950000  1.0
  H  H72  1  0.78170000  0.13390000  0.64880000  1.0
  H  H73  1  0.54160000  0.12990000  0.61590000  1.0
  H  H74  1  0.17580000  0.79650000  0.99910000  1.0
  H  H75  1  0.45450000  0.77900000  0.98930000  1.0
  H  H76  1  0.46640000  0.67350000  0.01650000  1.0
  H  H77  1  0.40920000  0.49810000  0.02710000  1.0
  H  H78  1  0.42240000  0.39560000  0.05530000  1.0
  H  H79  1  0.35650000  0.43250000  0.08790000  1.0
  H  H80  1  0.26850000  0.68020000  0.06410000  1.0
  H  H81  1  0.36280000  0.58730000  0.11950000  1.0
  H  H82  1  0.28170000  0.63390000  0.14880000  1.0
  H  H83  1  0.04160000  0.62990000  0.11590000  1.0
  H  H84  1  0.32420000  0.70350000  0.49910000  1.0
  H  H85  1  0.04550000  0.72100000  0.48930000  1.0
  H  H86  1  0.03360000  0.82650000  0.51650000  1.0
  H  H87  1  0.09080000  0.00190000  0.52710000  1.0
  H  H88  1  0.07760000  0.10440000  0.55530000  1.0
  H  H89  1  0.14350000  0.06750000  0.58790000  1.0
  H  H90  1  0.23150000  0.81980000  0.56410000  1.0
  H  H91  1  0.13720000  0.91270000  0.61950000  1.0
  H  H92  1  0.21830000  0.86610000  0.64880000  1.0
  H  H93  1  0.45840000  0.87010000  0.61590000  1.0
  H  H94  1  0.82420000  0.20350000  0.99910000  1.0
  H  H95  1  0.54550000  0.22100000  0.98930000  1.0
  H  H96  1  0.53360000  0.32650000  0.01650000  1.0
  H  H97  1  0.59080000  0.50190000  0.02710000  1.0
  H  H98  1  0.57760000  0.60440000  0.05530000  1.0
  H  H99  1  0.64350000  0.56750000  0.08790000  1.0
  H  H100  1  0.73150000  0.31980000  0.06410000  1.0
  H  H101  1  0.63720000  0.41270000  0.11950000  1.0
  H  H102  1  0.71830000  0.36610000  0.14880000  1.0
  H  H103  1  0.95840000  0.37010000  0.11590000  1.0
  H  H104  1  0.79650000  0.67580000  0.24910000  1.0
  H  H105  1  0.77900000  0.95450000  0.23930000  1.0
  H  H106  1  0.67350000  0.96640000  0.26650000  1.0
  H  H107  1  0.49810000  0.90920000  0.27710000  1.0
  H  H108  1  0.39560000  0.92240000  0.30530000  1.0
  H  H109  1  0.43250000  0.85650000  0.33790000  1.0
  H  H110  1  0.68020000  0.76850000  0.31410000  1.0
  H  H111  1  0.58730000  0.86280000  0.36950000  1.0
  H  H112  1  0.63390000  0.78170000  0.39880000  1.0
  H  H113  1  0.62990000  0.54160000  0.36590000  1.0
  H  H114  1  0.29650000  0.17580000  0.74910000  1.0
  H  H115  1  0.27900000  0.45450000  0.73930000  1.0
  H  H116  1  0.17350000  0.46640000  0.76650000  1.0
  H  H117  1  0.99810000  0.40920000  0.77710000  1.0
  H  H118  1  0.89560000  0.42240000  0.80530000  1.0
  H  H119  1  0.93250000  0.35650000  0.83790000  1.0
  H  H120  1  0.18020000  0.26850000  0.81410000  1.0
  H  H121  1  0.08730000  0.36280000  0.86950000  1.0
  H  H122  1  0.13390000  0.28170000  0.89880000  1.0
  H  H123  1  0.12990000  0.04160000  0.86590000  1.0
  H  H124  1  0.20350000  0.32420000  0.24910000  1.0
  H  H125  1  0.22100000  0.04550000  0.23930000  1.0
  H  H126  1  0.32650000  0.03360000  0.26650000  1.0
  H  H127  1  0.50190000  0.09080000  0.27710000  1.0
  H  H128  1  0.60440000  0.07760000  0.30530000  1.0
  H  H129  1  0.56750000  0.14350000  0.33790000  1.0
  H  H130  1  0.31980000  0.23150000  0.31410000  1.0
  H  H131  1  0.41270000  0.13720000  0.36950000  1.0
  H  H132  1  0.36610000  0.21830000  0.39880000  1.0
  H  H133  1  0.37010000  0.45840000  0.36590000  1.0
  H  H134  1  0.70350000  0.82420000  0.74910000  1.0
  H  H135  1  0.72100000  0.54550000  0.73930000  1.0
  H  H136  1  0.82650000  0.53360000  0.76650000  1.0
  H  H137  1  0.00190000  0.59080000  0.77710000  1.0
  H  H138  1  0.10440000  0.57760000  0.80530000  1.0
  H  H139  1  0.06750000  0.64350000  0.83790000  1.0
  H  H140  1  0.81980000  0.73150000  0.81410000  1.0
  H  H141  1  0.91270000  0.63720000  0.86950000  1.0
  H  H142  1  0.86610000  0.71830000  0.89880000  1.0
  H  H143  1  0.87010000  0.95840000  0.86590000  1.0
  H  H144  1  0.82420000  0.29650000  0.25090000  1.0
  H  H145  1  0.54550000  0.27900000  0.26070000  1.0
  H  H146  1  0.53360000  0.17350000  0.23350000  1.0
  H  H147  1  0.59080000  0.99810000  0.22290000  1.0
  H  H148  1  0.57760000  0.89560000  0.19470000  1.0
  H  H149  1  0.64350000  0.93250000  0.16210000  1.0
  H  H150  1  0.73150000  0.18020000  0.18590000  1.0
  H  H151  1  0.63720000  0.08730000  0.13050000  1.0
  H  H152  1  0.71830000  0.13390000  0.10120000  1.0
  H  H153  1  0.95840000  0.12990000  0.13410000  1.0
  H  H154  1  0.32420000  0.79650000  0.75090000  1.0
  H  H155  1  0.04550000  0.77900000  0.76070000  1.0
  H  H156  1  0.03360000  0.67350000  0.73350000  1.0
  H  H157  1  0.09080000  0.49810000  0.72290000  1.0
  H  H158  1  0.07760000  0.39560000  0.69470000  1.0
  H  H159  1  0.14350000  0.43250000  0.66210000  1.0
  H  H160  1  0.23150000  0.68020000  0.68590000  1.0
  H  H161  1  0.13720000  0.58730000  0.63050000  1.0
  H  H162  1  0.21830000  0.63390000  0.60120000  1.0
  H  H163  1  0.45840000  0.62990000  0.63410000  1.0
  H  H164  1  0.17580000  0.70350000  0.25090000  1.0
  H  H165  1  0.45450000  0.72100000  0.26070000  1.0
  H  H166  1  0.46640000  0.82650000  0.23350000  1.0
  H  H167  1  0.40920000  0.00190000  0.22290000  1.0
  H  H168  1  0.42240000  0.10440000  0.19470000  1.0
  H  H169  1  0.35650000  0.06750000  0.16210000  1.0
  H  H170  1  0.26850000  0.81980000  0.18590000  1.0
  H  H171  1  0.36280000  0.91270000  0.13050000  1.0
  H  H172  1  0.28170000  0.86610000  0.10120000  1.0
  H  H173  1  0.04160000  0.87010000  0.13410000  1.0
  H  H174  1  0.67580000  0.20350000  0.75090000  1.0
  H  H175  1  0.95450000  0.22100000  0.76070000  1.0
  H  H176  1  0.96640000  0.32650000  0.73350000  1.0
  H  H177  1  0.90920000  0.50190000  0.72290000  1.0
  H  H178  1  0.92240000  0.60440000  0.69470000  1.0
  H  H179  1  0.85650000  0.56750000  0.66210000  1.0
  H  H180  1  0.76850000  0.31980000  0.68590000  1.0
  H  H181  1  0.86280000  0.41270000  0.63050000  1.0
  H  H182  1  0.78170000  0.36610000  0.60120000  1.0
  H  H183  1  0.54160000  0.37010000  0.63410000  1.0
  H  H184  1  0.50000000  0.50000000  0.42920000  1.0
  H  H185  1  0.00000000  0.00000000  0.92920000  1.0
  H  H186  1  0.50000000  0.50000000  0.57080000  1.0
  H  H187  1  0.00000000  0.00000000  0.07080000  1.0
  H  H188  1  0.00000000  0.50000000  0.32080000  1.0
  H  H189  1  0.50000000  0.00000000  0.82080000  1.0
  H  H190  1  0.00000000  0.50000000  0.17920000  1.0
  H  H191  1  0.50000000  0.00000000  0.67920000  1.0
  C  C192  1  0.82420000  0.64720000  0.47128000  1.0
  C  C193  1  0.79590000  0.73900000  0.48166000  1.0
  C  C194  1  0.72970000  0.73410000  0.49748000  1.0
  C  C195  1  0.70060000  0.81340000  0.50862000  1.0
  C  C196  1  0.73900000  0.90060000  0.50324000  1.0
  C  C197  1  0.80280000  0.90740000  0.48716000  1.0
  C  C198  1  0.83430000  0.82550000  0.47579000  1.0
  C  C199  1  0.63000000  0.80010000  0.52625000  1.0
  C  C200  1  0.90180000  0.83580000  0.45761000  1.0
  C  C201  1  0.98610000  0.88260000  0.45990000  1.0
  C  C202  1  0.04750000  0.89040000  0.44292000  1.0
  C  C203  1  0.02550000  0.85140000  0.42336000  1.0
  C  C204  1  0.94070000  0.80480000  0.42086000  1.0
  C  C205  1  0.87790000  0.79810000  0.43776000  1.0
  C  C206  1  0.91710000  0.75380000  0.40070000  1.0
  C  C207  1  0.90360000  0.79780000  0.38148000  1.0
  C  C208  1  0.87750000  0.74950000  0.36382000  1.0
  C  C209  1  0.86770000  0.65270000  0.36460000  1.0
  C  C210  1  0.87990000  0.60650000  0.38337000  1.0
  C  C211  1  0.90670000  0.65570000  0.40136000  1.0
  C  C212  1  0.83630000  0.59740000  0.34544000  1.0
  C  C213  1  0.92980000  0.60170000  0.42147000  1.0
  C  C214  1  0.32420000  0.14720000  0.97128000  1.0
  C  C215  1  0.29590000  0.23900000  0.98166000  1.0
  C  C216  1  0.22970000  0.23410000  0.99748000  1.0
  C  C217  1  0.20060000  0.31340000  0.00862000  1.0
  C  C218  1  0.23900000  0.40060000  0.00324000  1.0
  C  C219  1  0.30280000  0.40740000  0.98716000  1.0
  C  C220  1  0.33430000  0.32550000  0.97579000  1.0
  C  C221  1  0.13000000  0.30010000  0.02625000  1.0
  C  C222  1  0.40180000  0.33580000  0.95761000  1.0
  C  C223  1  0.48610000  0.38260000  0.95990000  1.0
  C  C224  1  0.54750000  0.39040000  0.94292000  1.0
  C  C225  1  0.52550000  0.35140000  0.92336000  1.0
  C  C226  1  0.44070000  0.30480000  0.92086000  1.0
  C  C227  1  0.37790000  0.29810000  0.93776000  1.0
  C  C228  1  0.41710000  0.25380000  0.90070000  1.0
  C  C229  1  0.40360000  0.29780000  0.88148000  1.0
  C  C230  1  0.37750000  0.24950000  0.86382000  1.0
  C  C231  1  0.36770000  0.15270000  0.86460000  1.0
  C  C232  1  0.37990000  0.10650000  0.88337000  1.0
  C  C233  1  0.40670000  0.15570000  0.90136000  1.0
  C  C234  1  0.33630000  0.09740000  0.84544000  1.0
  C  C235  1  0.42980000  0.10170000  0.92147000  1.0
  C  C236  1  0.17580000  0.35280000  0.47128000  1.0
  C  C237  1  0.20410000  0.26100000  0.48166000  1.0
  C  C238  1  0.27030000  0.26590000  0.49748000  1.0
  C  C239  1  0.29940000  0.18660000  0.50862000  1.0
  C  C240  1  0.26100000  0.09940000  0.50324000  1.0
  C  C241  1  0.19720000  0.09260000  0.48716000  1.0
  C  C242  1  0.16570000  0.17450000  0.47579000  1.0
  C  C243  1  0.37000000  0.19990000  0.52625000  1.0
  C  C244  1  0.09820000  0.16420000  0.45761000  1.0
  C  C245  1  0.01390000  0.11740000  0.45990000  1.0
  C  C246  1  0.95250000  0.10960000  0.44292000  1.0
  C  C247  1  0.97450000  0.14860000  0.42336000  1.0
  C  C248  1  0.05930000  0.19520000  0.42086000  1.0
  C  C249  1  0.12210000  0.20190000  0.43776000  1.0
  C  C250  1  0.08290000  0.24620000  0.40070000  1.0
  C  C251  1  0.09640000  0.20220000  0.38148000  1.0
  C  C252  1  0.12250000  0.25050000  0.36382000  1.0
  C  C253  1  0.13230000  0.34730000  0.36460000  1.0
  C  C254  1  0.12010000  0.39350000  0.38337000  1.0
  C  C255  1  0.09330000  0.34430000  0.40136000  1.0
  C  C256  1  0.16370000  0.40260000  0.34544000  1.0
  C  C257  1  0.07020000  0.39830000  0.42147000  1.0
  C  C258  1  0.67580000  0.85280000  0.97128000  1.0
  C  C259  1  0.70410000  0.76100000  0.98166000  1.0
  C  C260  1  0.77030000  0.76590000  0.99748000  1.0
  C  C261  1  0.79940000  0.68660000  0.00862000  1.0
  C  C262  1  0.76100000  0.59940000  0.00324000  1.0
  C  C263  1  0.69720000  0.59260000  0.98716000  1.0
  C  C264  1  0.66570000  0.67450000  0.97579000  1.0
  C  C265  1  0.87000000  0.69990000  0.02625000  1.0
  C  C266  1  0.59820000  0.66420000  0.95761000  1.0
  C  C267  1  0.51390000  0.61740000  0.95990000  1.0
  C  C268  1  0.45250000  0.60960000  0.94292000  1.0
  C  C269  1  0.47450000  0.64860000  0.92336000  1.0
  C  C270  1  0.55930000  0.69520000  0.92086000  1.0
  C  C271  1  0.62210000  0.70190000  0.93776000  1.0
  C  C272  1  0.58290000  0.74620000  0.90070000  1.0
  C  C273  1  0.59640000  0.70220000  0.88148000  1.0
  C  C274  1  0.62250000  0.75050000  0.86382000  1.0
  C  C275  1  0.63230000  0.84730000  0.86460000  1.0
  C  C276  1  0.62010000  0.89350000  0.88337000  1.0
  C  C277  1  0.59330000  0.84430000  0.90136000  1.0
  C  C278  1  0.66370000  0.90260000  0.84544000  1.0
  C  C279  1  0.57020000  0.89830000  0.92147000  1.0
  C  C280  1  0.64720000  0.17580000  0.52872000  1.0
  C  C281  1  0.73900000  0.20410000  0.51834000  1.0
  C  C282  1  0.73410000  0.27030000  0.50252000  1.0
  C  C283  1  0.81340000  0.29940000  0.49138000  1.0
  C  C284  1  0.90060000  0.26100000  0.49676000  1.0
  C  C285  1  0.90740000  0.19720000  0.51284000  1.0
  C  C286  1  0.82550000  0.16570000  0.52421000  1.0
  C  C287  1  0.80010000  0.37000000  0.47375000  1.0
  C  C288  1  0.83580000  0.09820000  0.54239000  1.0
  C  C289  1  0.88260000  0.01390000  0.54010000  1.0
  C  C290  1  0.89040000  0.95250000  0.55708000  1.0
  C  C291  1  0.85140000  0.97450000  0.57664000  1.0
  C  C292  1  0.80480000  0.05930000  0.57914000  1.0
  C  C293  1  0.79810000  0.12210000  0.56224000  1.0
  C  C294  1  0.75380000  0.08290000  0.59930000  1.0
  C  C295  1  0.79780000  0.09640000  0.61852000  1.0
  C  C296  1  0.74950000  0.12250000  0.63618000  1.0
  C  C297  1  0.65270000  0.13230000  0.63540000  1.0
  C  C298  1  0.60650000  0.12010000  0.61663000  1.0
  C  C299  1  0.65570000  0.09330000  0.59864000  1.0
  C  C300  1  0.59740000  0.16370000  0.65456000  1.0
  C  C301  1  0.60170000  0.07020000  0.57853000  1.0
  C  C302  1  0.14720000  0.67580000  0.02872000  1.0
  C  C303  1  0.23900000  0.70410000  0.01834000  1.0
  C  C304  1  0.23410000  0.77030000  0.00252000  1.0
  C  C305  1  0.31340000  0.79940000  0.99138000  1.0
  C  C306  1  0.40060000  0.76100000  0.99676000  1.0
  C  C307  1  0.40740000  0.69720000  0.01284000  1.0
  C  C308  1  0.32550000  0.66570000  0.02421000  1.0
  C  C309  1  0.30010000  0.87000000  0.97375000  1.0
  C  C310  1  0.33580000  0.59820000  0.04239000  1.0
  C  C311  1  0.38260000  0.51390000  0.04010000  1.0
  C  C312  1  0.39040000  0.45250000  0.05708000  1.0
  C  C313  1  0.35140000  0.47450000  0.07664000  1.0
  C  C314  1  0.30480000  0.55930000  0.07914000  1.0
  C  C315  1  0.29810000  0.62210000  0.06224000  1.0
  C  C316  1  0.25380000  0.58290000  0.09930000  1.0
  C  C317  1  0.29780000  0.59640000  0.11852000  1.0
  C  C318  1  0.24950000  0.62250000  0.13618000  1.0
  C  C319  1  0.15270000  0.63230000  0.13540000  1.0
  C  C320  1  0.10650000  0.62010000  0.11663000  1.0
  C  C321  1  0.15570000  0.59330000  0.09864000  1.0
  C  C322  1  0.09740000  0.66370000  0.15456000  1.0
  C  C323  1  0.10170000  0.57020000  0.07853000  1.0
  C  C324  1  0.35280000  0.82420000  0.52872000  1.0
  C  C325  1  0.26100000  0.79590000  0.51834000  1.0
  C  C326  1  0.26590000  0.72970000  0.50252000  1.0
  C  C327  1  0.18660000  0.70060000  0.49138000  1.0
  C  C328  1  0.09940000  0.73900000  0.49676000  1.0
  C  C329  1  0.09260000  0.80280000  0.51284000  1.0
  C  C330  1  0.17450000  0.83430000  0.52421000  1.0
  C  C331  1  0.19990000  0.63000000  0.47375000  1.0
  C  C332  1  0.16420000  0.90180000  0.54239000  1.0
  C  C333  1  0.11740000  0.98610000  0.54010000  1.0
  C  C334  1  0.10960000  0.04750000  0.55708000  1.0
  C  C335  1  0.14860000  0.02550000  0.57664000  1.0
  C  C336  1  0.19520000  0.94070000  0.57914000  1.0
  C  C337  1  0.20190000  0.87790000  0.56224000  1.0
  C  C338  1  0.24620000  0.91710000  0.59930000  1.0
  C  C339  1  0.20220000  0.90360000  0.61852000  1.0
  C  C340  1  0.25050000  0.87750000  0.63618000  1.0
  C  C341  1  0.34730000  0.86770000  0.63540000  1.0
  C  C342  1  0.39350000  0.87990000  0.61663000  1.0
  C  C343  1  0.34430000  0.90670000  0.59864000  1.0
  C  C344  1  0.40260000  0.83630000  0.65456000  1.0
  C  C345  1  0.39830000  0.92980000  0.57853000  1.0
  C  C346  1  0.85280000  0.32420000  0.02872000  1.0
  C  C347  1  0.76100000  0.29590000  0.01834000  1.0
  C  C348  1  0.76590000  0.22970000  0.00252000  1.0
  C  C349  1  0.68660000  0.20060000  0.99138000  1.0
  C  C350  1  0.59940000  0.23900000  0.99676000  1.0
  C  C351  1  0.59260000  0.30280000  0.01284000  1.0
  C  C352  1  0.67450000  0.33430000  0.02421000  1.0
  C  C353  1  0.69990000  0.13000000  0.97375000  1.0
  C  C354  1  0.66420000  0.40180000  0.04239000  1.0
  C  C355  1  0.61740000  0.48610000  0.04010000  1.0
  C  C356  1  0.60960000  0.54750000  0.05708000  1.0
  C  C357  1  0.64860000  0.52550000  0.07664000  1.0
  C  C358  1  0.69520000  0.44070000  0.07914000  1.0
  C  C359  1  0.70190000  0.37790000  0.06224000  1.0
  C  C360  1  0.74620000  0.41710000  0.09930000  1.0
  C  C361  1  0.70220000  0.40360000  0.11852000  1.0
  C  C362  1  0.75050000  0.37750000  0.13618000  1.0
  C  C363  1  0.84730000  0.36770000  0.13540000  1.0
  C  C364  1  0.89350000  0.37990000  0.11663000  1.0
  C  C365  1  0.84430000  0.40670000  0.09864000  1.0
  C  C366  1  0.90260000  0.33630000  0.15456000  1.0
  C  C367  1  0.89830000  0.42980000  0.07853000  1.0
  C  C368  1  0.67580000  0.64720000  0.27872000  1.0
  C  C369  1  0.70410000  0.73900000  0.26834000  1.0
  C  C370  1  0.77030000  0.73410000  0.25252000  1.0
  C  C371  1  0.79940000  0.81340000  0.24138000  1.0
  C  C372  1  0.76100000  0.90060000  0.24676000  1.0
  C  C373  1  0.69720000  0.90740000  0.26284000  1.0
  C  C374  1  0.66570000  0.82550000  0.27421000  1.0
  C  C375  1  0.87000000  0.80010000  0.22375000  1.0
  C  C376  1  0.59820000  0.83580000  0.29239000  1.0
  C  C377  1  0.51390000  0.88260000  0.29010000  1.0
  C  C378  1  0.45250000  0.89040000  0.30708000  1.0
  C  C379  1  0.47450000  0.85140000  0.32664000  1.0
  C  C380  1  0.55930000  0.80480000  0.32914000  1.0
  C  C381  1  0.62210000  0.79810000  0.31224000  1.0
  C  C382  1  0.58290000  0.75380000  0.34930000  1.0
  C  C383  1  0.59640000  0.79780000  0.36852000  1.0
  C  C384  1  0.62250000  0.74950000  0.38618000  1.0
  C  C385  1  0.63230000  0.65270000  0.38540000  1.0
  C  C386  1  0.62010000  0.60650000  0.36663000  1.0
  C  C387  1  0.59330000  0.65570000  0.34864000  1.0
  C  C388  1  0.66370000  0.59740000  0.40456000  1.0
  C  C389  1  0.57020000  0.60170000  0.32853000  1.0
  C  C390  1  0.17580000  0.14720000  0.77872000  1.0
  C  C391  1  0.20410000  0.23900000  0.76834000  1.0
  C  C392  1  0.27030000  0.23410000  0.75252000  1.0
  C  C393  1  0.29940000  0.31340000  0.74138000  1.0
  C  C394  1  0.26100000  0.40060000  0.74676000  1.0
  C  C395  1  0.19720000  0.40740000  0.76284000  1.0
  C  C396  1  0.16570000  0.32550000  0.77421000  1.0
  C  C397  1  0.37000000  0.30010000  0.72375000  1.0
  C  C398  1  0.09820000  0.33580000  0.79239000  1.0
  C  C399  1  0.01390000  0.38260000  0.79010000  1.0
  C  C400  1  0.95250000  0.39040000  0.80708000  1.0
  C  C401  1  0.97450000  0.35140000  0.82664000  1.0
  C  C402  1  0.05930000  0.30480000  0.82914000  1.0
  C  C403  1  0.12210000  0.29810000  0.81224000  1.0
  C  C404  1  0.08290000  0.25380000  0.84930000  1.0
  C  C405  1  0.09640000  0.29780000  0.86852000  1.0
  C  C406  1  0.12250000  0.24950000  0.88618000  1.0
  C  C407  1  0.13230000  0.15270000  0.88540000  1.0
  C  C408  1  0.12010000  0.10650000  0.86663000  1.0
  C  C409  1  0.09330000  0.15570000  0.84864000  1.0
  C  C410  1  0.16370000  0.09740000  0.90456000  1.0
  C  C411  1  0.07020000  0.10170000  0.82853000  1.0
  C  C412  1  0.32420000  0.35280000  0.27872000  1.0
  C  C413  1  0.29590000  0.26100000  0.26834000  1.0
  C  C414  1  0.22970000  0.26590000  0.25252000  1.0
  C  C415  1  0.20060000  0.18660000  0.24138000  1.0
  C  C416  1  0.23900000  0.09940000  0.24676000  1.0
  C  C417  1  0.30280000  0.09260000  0.26284000  1.0
  C  C418  1  0.33430000  0.17450000  0.27421000  1.0
  C  C419  1  0.13000000  0.19990000  0.22375000  1.0
  C  C420  1  0.40180000  0.16420000  0.29239000  1.0
  C  C421  1  0.48610000  0.11740000  0.29010000  1.0
  C  C422  1  0.54750000  0.10960000  0.30708000  1.0
  C  C423  1  0.52550000  0.14860000  0.32664000  1.0
  C  C424  1  0.44070000  0.19520000  0.32914000  1.0
  C  C425  1  0.37790000  0.20190000  0.31224000  1.0
  C  C426  1  0.41710000  0.24620000  0.34930000  1.0
  C  C427  1  0.40360000  0.20220000  0.36852000  1.0
  C  C428  1  0.37750000  0.25050000  0.38618000  1.0
  C  C429  1  0.36770000  0.34730000  0.38540000  1.0
  C  C430  1  0.37990000  0.39350000  0.36663000  1.0
  C  C431  1  0.40670000  0.34430000  0.34864000  1.0
  C  C432  1  0.33630000  0.40260000  0.40456000  1.0
  C  C433  1  0.42980000  0.39830000  0.32853000  1.0
  C  C434  1  0.82420000  0.85280000  0.77872000  1.0
  C  C435  1  0.79590000  0.76100000  0.76834000  1.0
  C  C436  1  0.72970000  0.76590000  0.75252000  1.0
  C  C437  1  0.70060000  0.68660000  0.74138000  1.0
  C  C438  1  0.73900000  0.59940000  0.74676000  1.0
  C  C439  1  0.80280000  0.59260000  0.76284000  1.0
  C  C440  1  0.83430000  0.67450000  0.77421000  1.0
  C  C441  1  0.63000000  0.69990000  0.72375000  1.0
  C  C442  1  0.90180000  0.66420000  0.79239000  1.0
  C  C443  1  0.98610000  0.61740000  0.79010000  1.0
  C  C444  1  0.04750000  0.60960000  0.80708000  1.0
  C  C445  1  0.02550000  0.64860000  0.82664000  1.0
  C  C446  1  0.94070000  0.69520000  0.82914000  1.0
  C  C447  1  0.87790000  0.70190000  0.81224000  1.0
  C  C448  1  0.91710000  0.74620000  0.84930000  1.0
  C  C449  1  0.90360000  0.70220000  0.86852000  1.0
  C  C450  1  0.87750000  0.75050000  0.88618000  1.0
  C  C451  1  0.86770000  0.84730000  0.88540000  1.0
  C  C452  1  0.87990000  0.89350000  0.86663000  1.0
  C  C453  1  0.90670000  0.84430000  0.84864000  1.0
  C  C454  1  0.83630000  0.90260000  0.90456000  1.0
  C  C455  1  0.92980000  0.89830000  0.82853000  1.0
  C  C456  1  0.85280000  0.17580000  0.22128000  1.0
  C  C457  1  0.76100000  0.20410000  0.23166000  1.0
  C  C458  1  0.76590000  0.27030000  0.24748000  1.0
  C  C459  1  0.68660000  0.29940000  0.25862000  1.0
  C  C460  1  0.59940000  0.26100000  0.25324000  1.0
  C  C461  1  0.59260000  0.19720000  0.23716000  1.0
  C  C462  1  0.67450000  0.16570000  0.22579000  1.0
  C  C463  1  0.69990000  0.37000000  0.27625000  1.0
  C  C464  1  0.66420000  0.09820000  0.20761000  1.0
  C  C465  1  0.61740000  0.01390000  0.20990000  1.0
  C  C466  1  0.60960000  0.95250000  0.19292000  1.0
  C  C467  1  0.64860000  0.97450000  0.17336000  1.0
  C  C468  1  0.69520000  0.05930000  0.17086000  1.0
  C  C469  1  0.70190000  0.12210000  0.18776000  1.0
  C  C470  1  0.74620000  0.08290000  0.15070000  1.0
  C  C471  1  0.70220000  0.09640000  0.13148000  1.0
  C  C472  1  0.75050000  0.12250000  0.11382000  1.0
  C  C473  1  0.84730000  0.13230000  0.11460000  1.0
  C  C474  1  0.89350000  0.12010000  0.13337000  1.0
  C  C475  1  0.84430000  0.09330000  0.15136000  1.0
  C  C476  1  0.90260000  0.16370000  0.09544000  1.0
  C  C477  1  0.89830000  0.07020000  0.17147000  1.0
  C  C478  1  0.35280000  0.67580000  0.72128000  1.0
  C  C479  1  0.26100000  0.70410000  0.73166000  1.0
  C  C480  1  0.26590000  0.77030000  0.74748000  1.0
  C  C481  1  0.18660000  0.79940000  0.75862000  1.0
  C  C482  1  0.09940000  0.76100000  0.75324000  1.0
  C  C483  1  0.09260000  0.69720000  0.73716000  1.0
  C  C484  1  0.17450000  0.66570000  0.72579000  1.0
  C  C485  1  0.19990000  0.87000000  0.77625000  1.0
  C  C486  1  0.16420000  0.59820000  0.70761000  1.0
  C  C487  1  0.11740000  0.51390000  0.70990000  1.0
  C  C488  1  0.10960000  0.45250000  0.69292000  1.0
  C  C489  1  0.14860000  0.47450000  0.67336000  1.0
  C  C490  1  0.19520000  0.55930000  0.67086000  1.0
  C  C491  1  0.20190000  0.62210000  0.68776000  1.0
  C  C492  1  0.24620000  0.58290000  0.65070000  1.0
  C  C493  1  0.20220000  0.59640000  0.63148000  1.0
  C  C494  1  0.25050000  0.62250000  0.61382000  1.0
  C  C495  1  0.34730000  0.63230000  0.61460000  1.0
  C  C496  1  0.39350000  0.62010000  0.63337000  1.0
  C  C497  1  0.34430000  0.59330000  0.65136000  1.0
  C  C498  1  0.40260000  0.66370000  0.59544000  1.0
  C  C499  1  0.39830000  0.57020000  0.67147000  1.0
  C  C500  1  0.14720000  0.82420000  0.22128000  1.0
  C  C501  1  0.23900000  0.79590000  0.23166000  1.0
  C  C502  1  0.23410000  0.72970000  0.24748000  1.0
  C  C503  1  0.31340000  0.70060000  0.25862000  1.0
  C  C504  1  0.40060000  0.73900000  0.25324000  1.0
  C  C505  1  0.40740000  0.80280000  0.23716000  1.0
  C  C506  1  0.32550000  0.83430000  0.22579000  1.0
  C  C507  1  0.30010000  0.63000000  0.27625000  1.0
  C  C508  1  0.33580000  0.90180000  0.20761000  1.0
  C  C509  1  0.38260000  0.98610000  0.20990000  1.0
  C  C510  1  0.39040000  0.04750000  0.19292000  1.0
  C  C511  1  0.35140000  0.02550000  0.17336000  1.0
  C  C512  1  0.30480000  0.94070000  0.17086000  1.0
  C  C513  1  0.29810000  0.87790000  0.18776000  1.0
  C  C514  1  0.25380000  0.91710000  0.15070000  1.0
  C  C515  1  0.29780000  0.90360000  0.13148000  1.0
  C  C516  1  0.24950000  0.87750000  0.11382000  1.0
  C  C517  1  0.15270000  0.86770000  0.11460000  1.0
  C  C518  1  0.10650000  0.87990000  0.13337000  1.0
  C  C519  1  0.15570000  0.90670000  0.15136000  1.0
  C  C520  1  0.09740000  0.83630000  0.09544000  1.0
  C  C521  1  0.10170000  0.92980000  0.17147000  1.0
  C  C522  1  0.64720000  0.32420000  0.72128000  1.0
  C  C523  1  0.73900000  0.29590000  0.73166000  1.0
  C  C524  1  0.73410000  0.22970000  0.74748000  1.0
  C  C525  1  0.81340000  0.20060000  0.75862000  1.0
  C  C526  1  0.90060000  0.23900000  0.75324000  1.0
  C  C527  1  0.90740000  0.30280000  0.73716000  1.0
  C  C528  1  0.82550000  0.33430000  0.72579000  1.0
  C  C529  1  0.80010000  0.13000000  0.77625000  1.0
  C  C530  1  0.83580000  0.40180000  0.70761000  1.0
  C  C531  1  0.88260000  0.48610000  0.70990000  1.0
  C  C532  1  0.89040000  0.54750000  0.69292000  1.0
  C  C533  1  0.85140000  0.52550000  0.67336000  1.0
  C  C534  1  0.80480000  0.44070000  0.67086000  1.0
  C  C535  1  0.79810000  0.37790000  0.68776000  1.0
  C  C536  1  0.75380000  0.41710000  0.65070000  1.0
  C  C537  1  0.79780000  0.40360000  0.63148000  1.0
  C  C538  1  0.74950000  0.37750000  0.61382000  1.0
  C  C539  1  0.65270000  0.36770000  0.61460000  1.0
  C  C540  1  0.60650000  0.37990000  0.63337000  1.0
  C  C541  1  0.65570000  0.40670000  0.65136000  1.0
  C  C542  1  0.59740000  0.33630000  0.59544000  1.0
  C  C543  1  0.60170000  0.42980000  0.67147000  1.0
  C  C544  1  0.50000000  0.50000000  0.44390000  1.0
  C  C545  1  0.00000000  0.00000000  0.94390000  1.0
  C  C546  1  0.50000000  0.50000000  0.55610000  1.0
  C  C547  1  0.00000000  0.00000000  0.05610000  1.0
  C  C548  1  0.00000000  0.50000000  0.30610000  1.0
  C  C549  1  0.50000000  0.00000000  0.80610000  1.0
  C  C550  1  0.00000000  0.50000000  0.19390000  1.0
  C  C551  1  0.50000000  0.00000000  0.69390000  1.0
  O  O552  1  0.75860000  0.59600000  0.46489000  1.0
  O  O553  1  0.91080000  0.62740000  0.47057000  1.0
  O  O554  1  0.61380000  0.71760000  0.53226000  1.0
  O  O555  1  0.59180000  0.87020000  0.53473000  1.0
  O  O556  1  0.82420000  0.63760000  0.32775000  1.0
  O  O557  1  0.82140000  0.51020000  0.34732000  1.0
  O  O558  1  0.86890000  0.54470000  0.42870000  1.0
  O  O559  1  0.00810000  0.61040000  0.42981000  1.0
  O  O560  1  0.56980000  0.52550000  0.45600000  1.0
  O  O561  1  0.25860000  0.09600000  0.96489000  1.0
  O  O562  1  0.41080000  0.12740000  0.97057000  1.0
  O  O563  1  0.11380000  0.21760000  0.03226000  1.0
  O  O564  1  0.09180000  0.37020000  0.03473000  1.0
  O  O565  1  0.32420000  0.13760000  0.82775000  1.0
  O  O566  1  0.32140000  0.01020000  0.84732000  1.0
  O  O567  1  0.36890000  0.04470000  0.92870000  1.0
  O  O568  1  0.50810000  0.11040000  0.92981000  1.0
  O  O569  1  0.06980000  0.02550000  0.95600000  1.0
  O  O570  1  0.24140000  0.40400000  0.46489000  1.0
  O  O571  1  0.08920000  0.37260000  0.47057000  1.0
  O  O572  1  0.38620000  0.28240000  0.53226000  1.0
  O  O573  1  0.40820000  0.12980000  0.53473000  1.0
  O  O574  1  0.17580000  0.36240000  0.32775000  1.0
  O  O575  1  0.17860000  0.48980000  0.34732000  1.0
  O  O576  1  0.13110000  0.45530000  0.42870000  1.0
  O  O577  1  0.99190000  0.38960000  0.42981000  1.0
  O  O578  1  0.43020000  0.47450000  0.45600000  1.0
  O  O579  1  0.74140000  0.90400000  0.96489000  1.0
  O  O580  1  0.58920000  0.87260000  0.97057000  1.0
  O  O581  1  0.88620000  0.78240000  0.03226000  1.0
  O  O582  1  0.90820000  0.62980000  0.03473000  1.0
  O  O583  1  0.67580000  0.86240000  0.82775000  1.0
  O  O584  1  0.67860000  0.98980000  0.84732000  1.0
  O  O585  1  0.63110000  0.95530000  0.92870000  1.0
  O  O586  1  0.49190000  0.88960000  0.92981000  1.0
  O  O587  1  0.93020000  0.97450000  0.95600000  1.0
  O  O588  1  0.59600000  0.24140000  0.53511000  1.0
  O  O589  1  0.62740000  0.08920000  0.52943000  1.0
  O  O590  1  0.71760000  0.38620000  0.46774000  1.0
  O  O591  1  0.87020000  0.40820000  0.46527000  1.0
  O  O592  1  0.63760000  0.17580000  0.67225000  1.0
  O  O593  1  0.51020000  0.17860000  0.65268000  1.0
  O  O594  1  0.54470000  0.13110000  0.57130000  1.0
  O  O595  1  0.61040000  0.99190000  0.57019000  1.0
  O  O596  1  0.52550000  0.43020000  0.54400000  1.0
  O  O597  1  0.09600000  0.74140000  0.03511000  1.0
  O  O598  1  0.12740000  0.58920000  0.02943000  1.0
  O  O599  1  0.21760000  0.88620000  0.96774000  1.0
  O  O600  1  0.37020000  0.90820000  0.96527000  1.0
  O  O601  1  0.13760000  0.67580000  0.17225000  1.0
  O  O602  1  0.01020000  0.67860000  0.15268000  1.0
  O  O603  1  0.04470000  0.63110000  0.07130000  1.0
  O  O604  1  0.11040000  0.49190000  0.07019000  1.0
  O  O605  1  0.02550000  0.93020000  0.04400000  1.0
  O  O606  1  0.40400000  0.75860000  0.53511000  1.0
  O  O607  1  0.37260000  0.91080000  0.52943000  1.0
  O  O608  1  0.28240000  0.61380000  0.46774000  1.0
  O  O609  1  0.12980000  0.59180000  0.46527000  1.0
  O  O610  1  0.36240000  0.82420000  0.67225000  1.0
  O  O611  1  0.48980000  0.82140000  0.65268000  1.0
  O  O612  1  0.45530000  0.86890000  0.57130000  1.0
  O  O613  1  0.38960000  0.00810000  0.57019000  1.0
  O  O614  1  0.47450000  0.56980000  0.54400000  1.0
  O  O615  1  0.90400000  0.25860000  0.03511000  1.0
  O  O616  1  0.87260000  0.41080000  0.02943000  1.0
  O  O617  1  0.78240000  0.11380000  0.96774000  1.0
  O  O618  1  0.62980000  0.09180000  0.96527000  1.0
  O  O619  1  0.86240000  0.32420000  0.17225000  1.0
  O  O620  1  0.98980000  0.32140000  0.15268000  1.0
  O  O621  1  0.95530000  0.36890000  0.07130000  1.0
  O  O622  1  0.88960000  0.50810000  0.07019000  1.0
  O  O623  1  0.97450000  0.06980000  0.04400000  1.0
  O  O624  1  0.74140000  0.59600000  0.28511000  1.0
  O  O625  1  0.58920000  0.62740000  0.27943000  1.0
  O  O626  1  0.88620000  0.71760000  0.21774000  1.0
  O  O627  1  0.90820000  0.87020000  0.21527000  1.0
  O  O628  1  0.67580000  0.63760000  0.42225000  1.0
  O  O629  1  0.67860000  0.51020000  0.40268000  1.0
  O  O630  1  0.63110000  0.54470000  0.32130000  1.0
  O  O631  1  0.49190000  0.61040000  0.32019000  1.0
  O  O632  1  0.93020000  0.52550000  0.29400000  1.0
  O  O633  1  0.24140000  0.09600000  0.78511000  1.0
  O  O634  1  0.08920000  0.12740000  0.77943000  1.0
  O  O635  1  0.38620000  0.21760000  0.71774000  1.0
  O  O636  1  0.40820000  0.37020000  0.71527000  1.0
  O  O637  1  0.17580000  0.13760000  0.92225000  1.0
  O  O638  1  0.17860000  0.01020000  0.90268000  1.0
  O  O639  1  0.13110000  0.04470000  0.82130000  1.0
  O  O640  1  0.99190000  0.11040000  0.82019000  1.0
  O  O641  1  0.43020000  0.02550000  0.79400000  1.0
  O  O642  1  0.25860000  0.40400000  0.28511000  1.0
  O  O643  1  0.41080000  0.37260000  0.27943000  1.0
  O  O644  1  0.11380000  0.28240000  0.21774000  1.0
  O  O645  1  0.09180000  0.12980000  0.21527000  1.0
  O  O646  1  0.32420000  0.36240000  0.42225000  1.0
  O  O647  1  0.32140000  0.48980000  0.40268000  1.0
  O  O648  1  0.36890000  0.45530000  0.32130000  1.0
  O  O649  1  0.50810000  0.38960000  0.32019000  1.0
  O  O650  1  0.06980000  0.47450000  0.29400000  1.0
  O  O651  1  0.75860000  0.90400000  0.78511000  1.0
  O  O652  1  0.91080000  0.87260000  0.77943000  1.0
  O  O653  1  0.61380000  0.78240000  0.71774000  1.0
  O  O654  1  0.59180000  0.62980000  0.71527000  1.0
  O  O655  1  0.82420000  0.86240000  0.92225000  1.0
  O  O656  1  0.82140000  0.98980000  0.90268000  1.0
  O  O657  1  0.86890000  0.95530000  0.82130000  1.0
  O  O658  1  0.00810000  0.88960000  0.82019000  1.0
  O  O659  1  0.56980000  0.97450000  0.79400000  1.0
  O  O660  1  0.90400000  0.24140000  0.21489000  1.0
  O  O661  1  0.87260000  0.08920000  0.22057000  1.0
  O  O662  1  0.78240000  0.38620000  0.28226000  1.0
  O  O663  1  0.62980000  0.40820000  0.28473000  1.0
  O  O664  1  0.86240000  0.17580000  0.07775000  1.0
  O  O665  1  0.98980000  0.17860000  0.09732000  1.0
  O  O666  1  0.95530000  0.13110000  0.17870000  1.0
  O  O667  1  0.88960000  0.99190000  0.17981000  1.0
  O  O668  1  0.97450000  0.43020000  0.20600000  1.0
  O  O669  1  0.40400000  0.74140000  0.71489000  1.0
  O  O670  1  0.37260000  0.58920000  0.72057000  1.0
  O  O671  1  0.28240000  0.88620000  0.78226000  1.0
  O  O672  1  0.12980000  0.90820000  0.78473000  1.0
  O  O673  1  0.36240000  0.67580000  0.57775000  1.0
  O  O674  1  0.48980000  0.67860000  0.59732000  1.0
  O  O675  1  0.45530000  0.63110000  0.67870000  1.0
  O  O676  1  0.38960000  0.49190000  0.67981000  1.0
  O  O677  1  0.47450000  0.93020000  0.70600000  1.0
  O  O678  1  0.09600000  0.75860000  0.21489000  1.0
  O  O679  1  0.12740000  0.91080000  0.22057000  1.0
  O  O680  1  0.21760000  0.61380000  0.28226000  1.0
  O  O681  1  0.37020000  0.59180000  0.28473000  1.0
  O  O682  1  0.13760000  0.82420000  0.07775000  1.0
  O  O683  1  0.01020000  0.82140000  0.09732000  1.0
  O  O684  1  0.04470000  0.86890000  0.17870000  1.0
  O  O685  1  0.11040000  0.00810000  0.17981000  1.0
  O  O686  1  0.02550000  0.56980000  0.20600000  1.0
  O  O687  1  0.59600000  0.25860000  0.71489000  1.0
  O  O688  1  0.62740000  0.41080000  0.72057000  1.0
  O  O689  1  0.71760000  0.11380000  0.78226000  1.0
  O  O690  1  0.87020000  0.09180000  0.78473000  1.0
  O  O691  1  0.63760000  0.32420000  0.57775000  1.0
  O  O692  1  0.51020000  0.32140000  0.59732000  1.0
  O  O693  1  0.54470000  0.36890000  0.67870000  1.0
  O  O694  1  0.61040000  0.50810000  0.67981000  1.0
  O  O695  1  0.52550000  0.06980000  0.70600000  1.0
