# generated using pymatgen
data_Zn2H3C2N3O
_symmetry_space_group_name_H-M   'P 1'
_cell_length_a   6.81190000
_cell_length_b   7.31830000
_cell_length_c   13.78460000
_cell_angle_alpha   90.00000000
_cell_angle_beta   90.00000000
_cell_angle_gamma   90.00000000
_symmetry_Int_Tables_number   1
_chemical_formula_structural   Zn2H3C2N3O
_chemical_formula_sum   'Zn8 H12 C8 N12 O4'
_cell_volume   687.18336970
_cell_formula_units_Z   4
loop_
 _symmetry_equiv_pos_site_id
 _symmetry_equiv_pos_as_xyz
  1  'x, y, z'
loop_
 _atom_site_type_symbol
 _atom_site_label
 _atom_site_symmetry_multiplicity
 _atom_site_fract_x
 _atom_site_fract_y
 _atom_site_fract_z
 _atom_site_occupancy
  Zn  Zn0  1  0.75000000  0.18263000  0.58624000  1.0
  Zn  Zn1  1  0.25000000  0.31737000  0.08624000  1.0
  Zn  Zn2  1  0.25000000  0.81737000  0.41376000  1.0
  Zn  Zn3  1  0.75000000  0.68263000  0.91376000  1.0
  Zn  Zn4  1  0.00000000  0.50000000  0.50000000  1.0
  Zn  Zn5  1  0.00000000  0.00000000  0.00000000  1.0
  Zn  Zn6  1  0.50000000  0.50000000  0.50000000  1.0
  Zn  Zn7  1  0.50000000  0.00000000  0.00000000  1.0
  H  H8  1  0.03860000  0.13790000  0.76680000  1.0
  H  H9  1  0.96140000  0.36210000  0.26680000  1.0
  H  H10  1  0.53860000  0.86210000  0.23320000  1.0
  H  H11  1  0.46140000  0.63790000  0.73320000  1.0
  H  H12  1  0.96140000  0.86210000  0.23320000  1.0
  H  H13  1  0.03860000  0.63790000  0.73320000  1.0
  H  H14  1  0.46140000  0.13790000  0.76680000  1.0
  H  H15  1  0.53860000  0.36210000  0.26680000  1.0
  H  H16  1  0.75000000  0.29100000  0.43100000  1.0
  H  H17  1  0.25000000  0.20900000  0.93100000  1.0
  H  H18  1  0.25000000  0.70900000  0.56900000  1.0
  H  H19  1  0.75000000  0.79100000  0.06900000  1.0
  C  C20  1  0.90580000  0.12720000  0.78702000  1.0
  C  C21  1  0.09420000  0.37280000  0.28702000  1.0
  C  C22  1  0.40580000  0.87280000  0.21298000  1.0
  C  C23  1  0.59420000  0.62720000  0.71298000  1.0
  C  C24  1  0.09420000  0.87280000  0.21298000  1.0
  C  C25  1  0.90580000  0.62720000  0.71298000  1.0
  C  C26  1  0.59420000  0.12720000  0.78702000  1.0
  C  C27  1  0.40580000  0.37280000  0.28702000  1.0
  N  N28  1  0.85130000  0.08050000  0.87540000  1.0
  N  N29  1  0.14870000  0.41950000  0.37540000  1.0
  N  N30  1  0.35130000  0.91950000  0.12460000  1.0
  N  N31  1  0.64870000  0.58050000  0.62460000  1.0
  N  N32  1  0.14870000  0.91950000  0.12460000  1.0
  N  N33  1  0.85130000  0.58050000  0.62460000  1.0
  N  N34  1  0.64870000  0.08050000  0.87540000  1.0
  N  N35  1  0.35130000  0.41950000  0.37540000  1.0
  N  N36  1  0.75000000  0.15800000  0.72866000  1.0
  N  N37  1  0.25000000  0.34200000  0.22866000  1.0
  N  N38  1  0.25000000  0.84200000  0.27134000  1.0
  N  N39  1  0.75000000  0.65800000  0.77134000  1.0
  O  O40  1  0.75000000  0.35110000  0.47354000  1.0
  O  O41  1  0.25000000  0.14890000  0.97354000  1.0
  O  O42  1  0.25000000  0.64890000  0.52646000  1.0
  O  O43  1  0.75000000  0.85110000  0.02646000  1.0
