# generated using pymatgen
data_AgH8(CN)2
_symmetry_space_group_name_H-M   'P 1'
_cell_length_a   10.52100000
_cell_length_b   10.42600000
_cell_length_c   6.20200000
_cell_angle_alpha   90.00000000
_cell_angle_beta   115.00000000
_cell_angle_gamma   90.00000000
_symmetry_Int_Tables_number   1
_chemical_formula_structural   AgH8(CN)2
_chemical_formula_sum   'Ag4 H32 C8 N8'
_cell_volume   616.56975131
_cell_formula_units_Z   4
loop_
 _symmetry_equiv_pos_site_id
 _symmetry_equiv_pos_as_xyz
  1  'x, y, z'
loop_
 _atom_site_type_symbol
 _atom_site_label
 _atom_site_symmetry_multiplicity
 _atom_site_fract_x
 _atom_site_fract_y
 _atom_site_fract_z
 _atom_site_occupancy
  Ag  Ag0  1  0.50000000  0.00000000  0.50000000  1.0
  Ag  Ag1  1  0.00000000  0.50000000  0.50000000  1.0
  Ag  Ag2  1  0.50000000  0.00000000  0.00000000  1.0
  Ag  Ag3  1  0.00000000  0.50000000  0.00000000  1.0
  H  H4  1  0.39540000  0.26340000  0.57450000  1.0
  H  H5  1  0.32690000  0.17130000  0.69610000  1.0
  H  H6  1  0.28710000  0.14360000  0.23330000  1.0
  H  H7  1  0.23380000  0.05510000  0.35730000  1.0
  H  H8  1  0.89540000  0.76340000  0.57450000  1.0
  H  H9  1  0.82690000  0.67130000  0.69610000  1.0
  H  H10  1  0.78710000  0.64360000  0.23330000  1.0
  H  H11  1  0.73380000  0.55510000  0.35730000  1.0
  H  H12  1  0.60460000  0.26340000  0.92550000  1.0
  H  H13  1  0.67310000  0.17130000  0.80390000  1.0
  H  H14  1  0.71290000  0.14360000  0.26670000  1.0
  H  H15  1  0.76620000  0.05510000  0.14270000  1.0
  H  H16  1  0.10460000  0.76340000  0.92550000  1.0
  H  H17  1  0.17310000  0.67130000  0.80390000  1.0
  H  H18  1  0.21290000  0.64360000  0.26670000  1.0
  H  H19  1  0.26620000  0.55510000  0.14270000  1.0
  H  H20  1  0.60460000  0.73660000  0.42550000  1.0
  H  H21  1  0.67310000  0.82870000  0.30390000  1.0
  H  H22  1  0.71290000  0.85640000  0.76670000  1.0
  H  H23  1  0.76620000  0.94490000  0.64270000  1.0
  H  H24  1  0.10460000  0.23660000  0.42550000  1.0
  H  H25  1  0.17310000  0.32870000  0.30390000  1.0
  H  H26  1  0.21290000  0.35640000  0.76670000  1.0
  H  H27  1  0.26620000  0.44490000  0.64270000  1.0
  H  H28  1  0.39540000  0.73660000  0.07450000  1.0
  H  H29  1  0.32690000  0.82870000  0.19610000  1.0
  H  H30  1  0.28710000  0.85640000  0.73330000  1.0
  H  H31  1  0.23380000  0.94490000  0.85730000  1.0
  H  H32  1  0.89540000  0.23660000  0.07450000  1.0
  H  H33  1  0.82690000  0.32870000  0.19610000  1.0
  H  H34  1  0.78710000  0.35640000  0.73330000  1.0
  H  H35  1  0.73380000  0.44490000  0.85730000  1.0
  C  C36  1  0.31440000  0.20980000  0.54600000  1.0
  C  C37  1  0.81440000  0.70980000  0.54600000  1.0
  C  C38  1  0.68560000  0.20980000  0.95400000  1.0
  C  C39  1  0.18560000  0.70980000  0.95400000  1.0
  C  C40  1  0.68560000  0.79020000  0.45400000  1.0
  C  C41  1  0.18560000  0.29020000  0.45400000  1.0
  C  C42  1  0.31440000  0.79020000  0.04600000  1.0
  C  C43  1  0.81440000  0.29020000  0.04600000  1.0
  N  N44  1  0.30500000  0.10830000  0.37600000  1.0
  N  N45  1  0.80500000  0.60830000  0.37600000  1.0
  N  N46  1  0.69500000  0.10830000  0.12400000  1.0
  N  N47  1  0.19500000  0.60830000  0.12400000  1.0
  N  N48  1  0.69500000  0.89170000  0.62400000  1.0
  N  N49  1  0.19500000  0.39170000  0.62400000  1.0
  N  N50  1  0.30500000  0.89170000  0.87600000  1.0
  N  N51  1  0.80500000  0.39170000  0.87600000  1.0
