# generated using pymatgen
data_Tb3Eu5H56(C5O2)24
_symmetry_space_group_name_H-M   'P 1'
_cell_length_a   13.02900000
_cell_length_b   13.82800000
_cell_length_c   28.02100000
_cell_angle_alpha   75.72000000
_cell_angle_beta   79.23000000
_cell_angle_gamma   85.59000000
_symmetry_Int_Tables_number   1
_chemical_formula_structural   Tb3Eu5H56(C5O2)24
_chemical_formula_sum   'Tb3 Eu5 H56 C120 O48'
_cell_volume   4803.72293580
_cell_formula_units_Z   1
loop_
 _symmetry_equiv_pos_site_id
 _symmetry_equiv_pos_as_xyz
  1  'x, y, z'
loop_
 _atom_site_type_symbol
 _atom_site_label
 _atom_site_symmetry_multiplicity
 _atom_site_fract_x
 _atom_site_fract_y
 _atom_site_fract_z
 _atom_site_occupancy
  Tb  Tb0  1  0.96921000  0.12477000  0.93955000  1.0
  Tb  Tb1  1  0.11987000  0.97871000  0.44597000  1.0
  Tb  Tb2  1  0.52847000  0.46240000  0.58502000  1.0
  Eu  Eu3  1  0.51687000  0.48081000  0.91415000  1.0
  Eu  Eu4  1  0.03079000  0.87523000  0.06044000  1.0
  Eu  Eu5  1  0.88013000  0.02129000  0.55403000  1.0
  Eu  Eu6  1  0.47153000  0.53760000  0.41498000  1.0
  Eu  Eu7  1  0.48313000  0.51919000  0.08585000  1.0
  H  H8  1  0.72390000  0.74500000  0.51500000  1.0
  H  H9  1  0.72590000  0.66700000  0.38650000  1.0
  H  H10  1  0.91790000  0.87860000  0.39090000  1.0
  H  H11  1  0.00270000  0.85250000  0.32100000  1.0
  H  H12  1  0.05830000  0.87480000  0.23530000  1.0
  H  H13  1  0.80860000  0.73860000  0.22520000  1.0
  H  H14  1  0.75230000  0.71710000  0.31020000  1.0
  H  H15  1  0.74970000  0.27130000  0.43720000  1.0
  H  H16  1  0.02620000  0.26140000  0.34610000  1.0
  H  H17  1  0.81530000  0.48050000  0.30970000  1.0
  H  H18  1  0.96800000  0.56820000  0.27590000  1.0
  H  H19  1  0.09530000  0.64440000  0.21230000  1.0
  H  H20  1  0.20680000  0.37560000  0.19410000  1.0
  H  H21  1  0.07860000  0.30010000  0.25900000  1.0
  H  H22  1  0.73870000  0.23960000  0.05750000  1.0
  H  H23  1  0.54520000  0.18290000  0.18920000  1.0
  H  H24  1  0.75810000  0.97520000  0.15420000  1.0
  H  H25  1  0.62430000  0.87230000  0.20100000  1.0
  H  H26  1  0.55890000  0.76020000  0.27490000  1.0
  H  H27  1  0.49570000  0.98290000  0.34430000  1.0
  H  H28  1  0.56040000  0.09550000  0.27080000  1.0
  H  H29  1  0.74560000  0.72960000  0.01370000  1.0
  H  H30  1  0.86340000  0.92500000  0.88790000  1.0
  H  H31  1  0.67880000  0.71050000  0.88150000  1.0
  H  H32  1  0.65050000  0.82300000  0.81020000  1.0
  H  H33  1  0.67430000  0.87880000  0.72450000  1.0
  H  H34  1  0.96320000  0.95650000  0.72380000  1.0
  H  H35  1  0.93660000  0.90790000  0.81030000  1.0
  H  H36  1  0.27610000  0.25500000  0.48500000  1.0
  H  H37  1  0.27410000  0.33300000  0.61350000  1.0
  H  H38  1  0.08210000  0.12140000  0.60910000  1.0
  H  H39  1  0.99730000  0.14750000  0.67900000  1.0
  H  H40  1  0.94170000  0.12520000  0.76470000  1.0
  H  H41  1  0.19140000  0.26140000  0.77480000  1.0
  H  H42  1  0.24770000  0.28290000  0.68980000  1.0
  H  H43  1  0.25030000  0.72870000  0.56280000  1.0
  H  H44  1  0.97380000  0.73860000  0.65390000  1.0
  H  H45  1  0.18470000  0.51950000  0.69030000  1.0
  H  H46  1  0.03200000  0.43180000  0.72410000  1.0
  H  H47  1  0.90470000  0.35560000  0.78770000  1.0
  H  H48  1  0.79320000  0.62440000  0.80590000  1.0
  H  H49  1  0.92140000  0.69990000  0.74100000  1.0
  H  H50  1  0.26130000  0.76040000  0.94250000  1.0
  H  H51  1  0.45480000  0.81710000  0.81080000  1.0
  H  H52  1  0.24190000  0.02480000  0.84580000  1.0
  H  H53  1  0.37570000  0.12770000  0.79900000  1.0
  H  H54  1  0.44110000  0.23980000  0.72510000  1.0
  H  H55  1  0.50430000  0.01710000  0.65570000  1.0
  H  H56  1  0.43960000  0.90450000  0.72920000  1.0
  H  H57  1  0.25440000  0.27040000  0.98630000  1.0
  H  H58  1  0.13660000  0.07500000  0.11210000  1.0
  H  H59  1  0.32120000  0.28950000  0.11850000  1.0
  H  H60  1  0.34950000  0.17700000  0.18980000  1.0
  H  H61  1  0.32570000  0.12120000  0.27550000  1.0
  H  H62  1  0.03680000  0.04350000  0.27620000  1.0
  H  H63  1  0.06340000  0.09210000  0.18970000  1.0
  C  C64  1  0.82520000  0.82350000  0.45730000  1.0
  C  C65  1  0.75050000  0.75240000  0.48110000  1.0
  C  C66  1  0.71570000  0.69290000  0.45500000  1.0
  C  C67  1  0.75200000  0.70530000  0.40430000  1.0
  C  C68  1  0.82890000  0.77620000  0.37930000  1.0
  C  C69  1  0.86570000  0.83330000  0.40660000  1.0
  C  C70  1  0.86710000  0.78820000  0.32400000  1.0
  C  C71  1  0.96160000  0.83190000  0.30180000  1.0
  C  C72  1  0.99490000  0.84480000  0.25020000  1.0
  C  C73  1  0.93630000  0.81430000  0.22120000  1.0
  C  C74  1  0.84680000  0.76410000  0.24400000  1.0
  C  C75  1  0.81310000  0.75140000  0.29520000  1.0
  C  C76  1  0.85930000  0.88870000  0.48670000  1.0
  C  C77  1  0.63990000  0.61210000  0.48170000  1.0
  C  C78  1  0.97280000  0.83040000  0.16530000  1.0
  C  C79  1  0.76620000  0.38270000  0.37490000  1.0
  C  C80  1  0.79540000  0.29810000  0.40800000  1.0
  C  C81  1  0.89440000  0.25260000  0.39750000  1.0
  C  C82  1  0.96130000  0.29270000  0.35340000  1.0
  C  C83  1  0.93340000  0.37900000  0.31960000  1.0
  C  C84  1  0.83530000  0.42280000  0.33140000  1.0
  C  C85  1  0.01090000  0.42620000  0.27520000  1.0
  C  C86  1  0.01700000  0.52880000  0.25990000  1.0
  C  C87  1  0.09340000  0.57510000  0.22150000  1.0
  C  C88  1  0.16770000  0.51770000  0.19660000  1.0
  C  C89  1  0.15970000  0.41520000  0.21080000  1.0
  C  C90  1  0.08200000  0.36940000  0.25000000  1.0
  C  C91  1  0.66070000  0.43250000  0.38590000  1.0
  C  C92  1  0.92980000  0.16370000  0.43480000  1.0
  C  C93  1  0.25640000  0.56470000  0.15860000  1.0
  C  C94  1  0.76250000  0.10260000  0.10010000  1.0
  C  C95  1  0.71520000  0.19630000  0.08810000  1.0
  C  C96  1  0.63310000  0.22690000  0.12110000  1.0
  C  C97  1  0.59910000  0.16220000  0.16670000  1.0
  C  C98  1  0.64360000  0.06690000  0.17960000  1.0
  C  C99  1  0.72660000  0.03830000  0.14590000  1.0
  C  C100  1  0.60170000  0.99550000  0.22770000  1.0
  C  C101  1  0.59920000  0.89540000  0.22970000  1.0
  C  C102  1  0.55920000  0.82780000  0.27420000  1.0
  C  C103  1  0.52030000  0.86040000  0.31710000  1.0
  C  C104  1  0.52150000  0.96020000  0.31560000  1.0
  C  C105  1  0.56100000  0.02790000  0.27140000  1.0
  C  C106  1  0.84920000  0.06840000  0.06370000  1.0
  C  C107  1  0.58080000  0.32760000  0.10770000  1.0
  C  C108  1  0.48110000  0.78430000  0.36500000  1.0
  C  C109  1  0.69850000  0.70790000  0.95230000  1.0
  C  C110  1  0.75180000  0.75350000  0.97920000  1.0
  C  C111  1  0.81440000  0.83490000  0.95480000  1.0
  C  C112  1  0.82370000  0.86930000  0.90390000  1.0
  C  C113  1  0.77560000  0.82350000  0.87550000  1.0
  C  C114  1  0.71200000  0.74190000  0.89990000  1.0
  C  C115  1  0.79030000  0.85900000  0.81990000  1.0
  C  C116  1  0.71350000  0.85100000  0.79310000  1.0
  C  C117  1  0.72780000  0.88360000  0.74150000  1.0
  C  C118  1  0.82210000  0.92340000  0.71530000  1.0
  C  C119  1  0.89930000  0.93080000  0.74120000  1.0
  C  C120  1  0.88390000  0.90040000  0.79330000  1.0
  C  C121  1  0.63040000  0.62330000  0.97900000  1.0
  C  C122  1  0.87270000  0.88030000  0.98490000  1.0
  C  C123  1  0.83940000  0.96160000  0.65910000  1.0
  C  C124  1  0.17480000  0.17650000  0.54270000  1.0
  C  C125  1  0.24950000  0.24760000  0.51890000  1.0
  C  C126  1  0.28430000  0.30710000  0.54500000  1.0
  C  C127  1  0.24800000  0.29470000  0.59570000  1.0
  C  C128  1  0.17110000  0.22380000  0.62070000  1.0
  C  C129  1  0.13430000  0.16670000  0.59340000  1.0
  C  C130  1  0.13290000  0.21180000  0.67600000  1.0
  C  C131  1  0.03840000  0.16810000  0.69820000  1.0
  C  C132  1  0.00510000  0.15520000  0.74980000  1.0
  C  C133  1  0.06370000  0.18570000  0.77880000  1.0
  C  C134  1  0.15320000  0.23590000  0.75600000  1.0
  C  C135  1  0.18690000  0.24860000  0.70480000  1.0
  C  C136  1  0.14070000  0.11130000  0.51330000  1.0
  C  C137  1  0.36010000  0.38790000  0.51830000  1.0
  C  C138  1  0.02720000  0.16960000  0.83470000  1.0
  C  C139  1  0.23380000  0.61730000  0.62510000  1.0
  C  C140  1  0.20460000  0.70190000  0.59200000  1.0
  C  C141  1  0.10560000  0.74740000  0.60250000  1.0
  C  C142  1  0.03870000  0.70730000  0.64660000  1.0
  C  C143  1  0.06660000  0.62100000  0.68040000  1.0
  C  C144  1  0.16470000  0.57720000  0.66860000  1.0
  C  C145  1  0.98910000  0.57380000  0.72480000  1.0
  C  C146  1  0.98300000  0.47120000  0.74010000  1.0
  C  C147  1  0.90660000  0.42490000  0.77850000  1.0
  C  C148  1  0.83230000  0.48230000  0.80340000  1.0
  C  C149  1  0.84030000  0.58480000  0.78920000  1.0
  C  C150  1  0.91800000  0.63060000  0.75000000  1.0
  C  C151  1  0.33930000  0.56750000  0.61410000  1.0
  C  C152  1  0.07020000  0.83630000  0.56520000  1.0
  C  C153  1  0.74360000  0.43530000  0.84140000  1.0
  C  C154  1  0.23750000  0.89740000  0.89990000  1.0
  C  C155  1  0.28480000  0.80370000  0.91190000  1.0
  C  C156  1  0.36690000  0.77310000  0.87890000  1.0
  C  C157  1  0.40090000  0.83780000  0.83330000  1.0
  C  C158  1  0.35640000  0.93310000  0.82040000  1.0
  C  C159  1  0.27340000  0.96170000  0.85410000  1.0
  C  C160  1  0.39830000  0.00450000  0.77230000  1.0
  C  C161  1  0.40080000  0.10460000  0.77030000  1.0
  C  C162  1  0.44080000  0.17220000  0.72580000  1.0
  C  C163  1  0.47970000  0.13960000  0.68290000  1.0
  C  C164  1  0.47850000  0.03980000  0.68440000  1.0
  C  C165  1  0.43900000  0.97210000  0.72860000  1.0
  C  C166  1  0.15080000  0.93160000  0.93630000  1.0
  C  C167  1  0.41920000  0.67240000  0.89230000  1.0
  C  C168  1  0.51890000  0.21570000  0.63500000  1.0
  C  C169  1  0.30150000  0.29210000  0.04770000  1.0
  C  C170  1  0.24820000  0.24650000  0.02080000  1.0
  C  C171  1  0.18560000  0.16510000  0.04520000  1.0
  C  C172  1  0.17630000  0.13070000  0.09610000  1.0
  C  C173  1  0.22440000  0.17650000  0.12450000  1.0
  C  C174  1  0.28800000  0.25810000  0.10010000  1.0
  C  C175  1  0.20970000  0.14100000  0.18010000  1.0
  C  C176  1  0.28650000  0.14900000  0.20690000  1.0
  C  C177  1  0.27220000  0.11640000  0.25850000  1.0
  C  C178  1  0.17790000  0.07660000  0.28470000  1.0
  C  C179  1  0.10070000  0.06920000  0.25880000  1.0
  C  C180  1  0.11610000  0.09960000  0.20670000  1.0
  C  C181  1  0.36960000  0.37670000  0.02100000  1.0
  C  C182  1  0.12730000  0.11970000  0.01510000  1.0
  C  C183  1  0.16060000  0.03840000  0.34090000  1.0
  O  O184  1  0.94580000  0.93190000  0.47203000  1.0
  O  O185  1  0.79900000  0.89960000  0.52606000  1.0
  O  O186  1  0.60040000  0.56800000  0.45629000  1.0
  O  O187  1  0.62370000  0.59070000  0.52874000  1.0
  O  O188  1  0.04550000  0.88930000  0.14445000  1.0
  O  O189  1  0.93160000  0.78600000  0.14063000  1.0
  O  O190  1  0.63930000  0.51630000  0.35791000  1.0
  O  O191  1  0.59540000  0.39210000  0.42319000  1.0
  O  O192  1  0.86900000  0.13450000  0.47604000  1.0
  O  O193  1  0.01890000  0.12660000  0.42223000  1.0
  O  O194  1  0.26090000  0.65870000  0.14699000  1.0
  O  O195  1  0.32530000  0.50800000  0.14124000  1.0
  O  O196  1  0.88930000  0.98330000  0.07775000  1.0
  O  O197  1  0.87610000  0.12770000  0.02161000  1.0
  O  O198  1  0.50410000  0.35150000  0.13867000  1.0
  O  O199  1  0.61250000  0.38680000  0.06702000  1.0
  O  O200  1  0.49040000  0.69420000  0.36318000  1.0
  O  O201  1  0.44400000  0.81450000  0.40330000  1.0
  O  O202  1  0.59700000  0.57250000  0.95454000  1.0
  O  O203  1  0.61100000  0.60680000  0.02551000  1.0
  O  O204  1  0.90120000  0.96840000  0.96693000  1.0
  O  O205  1  0.89360000  0.82710000  0.02533000  1.0
  O  O206  1  0.77840000  0.93620000  0.63536000  1.0
  O  O207  1  0.91350000  0.01790000  0.63796000  1.0
  O  O208  1  0.05420000  0.06810000  0.52797000  1.0
  O  O209  1  0.20100000  0.10040000  0.47394000  1.0
  O  O210  1  0.39960000  0.43200000  0.54371000  1.0
  O  O211  1  0.37630000  0.40930000  0.47126000  1.0
  O  O212  1  0.95450000  0.11070000  0.85555000  1.0
  O  O213  1  0.06840000  0.21400000  0.85937000  1.0
  O  O214  1  0.36070000  0.48370000  0.64209000  1.0
  O  O215  1  0.40460000  0.60790000  0.57681000  1.0
  O  O216  1  0.13100000  0.86550000  0.52396000  1.0
  O  O217  1  0.98110000  0.87340000  0.57777000  1.0
  O  O218  1  0.73910000  0.34130000  0.85301000  1.0
  O  O219  1  0.67470000  0.49200000  0.85876000  1.0
  O  O220  1  0.11070000  0.01670000  0.92225000  1.0
  O  O221  1  0.12390000  0.87230000  0.97839000  1.0
  O  O222  1  0.49590000  0.64850000  0.86133000  1.0
  O  O223  1  0.38750000  0.61320000  0.93298000  1.0
  O  O224  1  0.50960000  0.30580000  0.63682000  1.0
  O  O225  1  0.55600000  0.18550000  0.59670000  1.0
  O  O226  1  0.40300000  0.42750000  0.04546000  1.0
  O  O227  1  0.38900000  0.39320000  0.97449000  1.0
  O  O228  1  0.09880000  0.03160000  0.03307000  1.0
  O  O229  1  0.10640000  0.17290000  0.97467000  1.0
  O  O230  1  0.22160000  0.06380000  0.36464000  1.0
  O  O231  1  0.08650000  0.98210000  0.36204000  1.0
