# generated using pymatgen
data_AgH6C8S(N2O)2
_symmetry_space_group_name_H-M   'P 1'
_cell_length_a   8.35620000
_cell_length_b   12.84370000
_cell_length_c   25.59000000
_cell_angle_alpha   90.94400000
_cell_angle_beta   90.00000000
_cell_angle_gamma   90.00000000
_symmetry_Int_Tables_number   1
_chemical_formula_structural   AgH6C8S(N2O)2
_chemical_formula_sum   'Ag8 H48 C64 S8 N32 O16'
_cell_volume   2746.06185978
_cell_formula_units_Z   8
loop_
 _symmetry_equiv_pos_site_id
 _symmetry_equiv_pos_as_xyz
  1  'x, y, z'
loop_
 _atom_site_type_symbol
 _atom_site_label
 _atom_site_symmetry_multiplicity
 _atom_site_fract_x
 _atom_site_fract_y
 _atom_site_fract_z
 _atom_site_occupancy
  Ag  Ag0  1  0.15995000  0.00760000  0.51703000  1.0
  Ag  Ag1  1  0.15995000  0.99240000  0.98297000  1.0
  Ag  Ag2  1  0.84005000  0.99240000  0.48297000  1.0
  Ag  Ag3  1  0.84005000  0.00760000  0.01703000  1.0
  Ag  Ag4  1  0.50000000  0.00000000  0.50000000  1.0
  Ag  Ag5  1  0.50000000  0.00000000  0.00000000  1.0
  Ag  Ag6  1  0.89452000  0.50000000  0.75000000  1.0
  Ag  Ag7  1  0.10548000  0.50000000  0.25000000  1.0
  H  H8  1  0.44050000  0.24370000  0.48600000  1.0
  H  H9  1  0.40910000  0.39610000  0.53290000  1.0
  H  H10  1  0.54160000  0.09870000  0.61340000  1.0
  H  H11  1  0.25640000  0.40730000  0.72070000  1.0
  H  H12  1  0.85520000  0.25550000  0.73610000  1.0
  H  H13  1  0.97960000  0.10460000  0.71550000  1.0
  H  H14  1  0.25870000  0.02330000  0.63510000  1.0
  H  H15  1  0.34840000  0.92410000  0.70440000  1.0
  H  H16  1  0.24340000  0.76990000  0.54820000  1.0
  H  H17  1  0.54420000  0.55860000  0.69950000  1.0
  H  H18  1  0.95780000  0.55210000  0.63110000  1.0
  H  H19  1  0.84090000  0.60130000  0.55540000  1.0
  H  H20  1  0.44050000  0.75630000  0.01400000  1.0
  H  H21  1  0.40910000  0.60390000  0.96710000  1.0
  H  H22  1  0.54160000  0.90130000  0.88660000  1.0
  H  H23  1  0.25640000  0.59270000  0.77930000  1.0
  H  H24  1  0.85520000  0.74450000  0.76390000  1.0
  H  H25  1  0.97960000  0.89540000  0.78450000  1.0
  H  H26  1  0.25870000  0.97670000  0.86490000  1.0
  H  H27  1  0.34840000  0.07590000  0.79560000  1.0
  H  H28  1  0.24340000  0.23010000  0.95180000  1.0
  H  H29  1  0.54420000  0.44140000  0.80050000  1.0
  H  H30  1  0.95780000  0.44790000  0.86890000  1.0
  H  H31  1  0.84090000  0.39870000  0.94460000  1.0
  H  H32  1  0.55950000  0.75630000  0.51400000  1.0
  H  H33  1  0.59090000  0.60390000  0.46710000  1.0
  H  H34  1  0.45840000  0.90130000  0.38660000  1.0
  H  H35  1  0.74360000  0.59270000  0.27930000  1.0
  H  H36  1  0.14480000  0.74450000  0.26390000  1.0
  H  H37  1  0.02040000  0.89540000  0.28450000  1.0
  H  H38  1  0.74130000  0.97670000  0.36490000  1.0
  H  H39  1  0.65160000  0.07590000  0.29560000  1.0
  H  H40  1  0.75660000  0.23010000  0.45180000  1.0
  H  H41  1  0.45580000  0.44140000  0.30050000  1.0
  H  H42  1  0.04220000  0.44790000  0.36890000  1.0
  H  H43  1  0.15910000  0.39870000  0.44460000  1.0
  H  H44  1  0.55950000  0.24370000  0.98600000  1.0
  H  H45  1  0.59090000  0.39610000  0.03290000  1.0
  H  H46  1  0.45840000  0.09870000  0.11340000  1.0
  H  H47  1  0.74360000  0.40730000  0.22070000  1.0
  H  H48  1  0.14480000  0.25550000  0.23610000  1.0
  H  H49  1  0.02040000  0.10460000  0.21550000  1.0
  H  H50  1  0.74130000  0.02330000  0.13510000  1.0
  H  H51  1  0.65160000  0.92410000  0.20440000  1.0
  H  H52  1  0.75660000  0.76990000  0.04820000  1.0
  H  H53  1  0.45580000  0.55860000  0.19950000  1.0
  H  H54  1  0.04220000  0.55210000  0.13110000  1.0
  H  H55  1  0.15910000  0.60130000  0.05540000  1.0
  C  C56  1  0.45400000  0.24300000  0.52210000  1.0
  C  C57  1  0.43260000  0.33530000  0.55060000  1.0
  C  C58  1  0.48010000  0.24830000  0.62390000  1.0
  C  C59  1  0.50950000  0.15800000  0.59590000  1.0
  C  C60  1  0.27120000  0.25300000  0.70790000  1.0
  C  C61  1  0.19740000  0.34590000  0.71990000  1.0
  C  C62  1  0.96410000  0.25690000  0.72870000  1.0
  C  C63  1  0.03880000  0.16590000  0.71650000  1.0
  C  C64  1  0.27330000  0.95200000  0.63040000  1.0
  C  C65  1  0.32480000  0.89100000  0.67270000  1.0
  C  C66  1  0.30820000  0.74850000  0.62300000  1.0
  C  C67  1  0.26250000  0.80410000  0.57990000  1.0
  C  C68  1  0.54060000  0.59160000  0.62350000  1.0
  C  C69  1  0.60850000  0.56550000  0.67010000  1.0
  C  C70  1  0.84780000  0.56280000  0.63040000  1.0
  C  C71  1  0.77670000  0.59150000  0.58460000  1.0
  C  C72  1  0.45400000  0.75700000  0.97790000  1.0
  C  C73  1  0.43260000  0.66470000  0.94940000  1.0
  C  C74  1  0.48010000  0.75170000  0.87610000  1.0
  C  C75  1  0.50950000  0.84200000  0.90410000  1.0
  C  C76  1  0.27120000  0.74700000  0.79210000  1.0
  C  C77  1  0.19740000  0.65410000  0.78010000  1.0
  C  C78  1  0.96410000  0.74310000  0.77130000  1.0
  C  C79  1  0.03880000  0.83410000  0.78350000  1.0
  C  C80  1  0.27330000  0.04800000  0.86960000  1.0
  C  C81  1  0.32480000  0.10900000  0.82730000  1.0
  C  C82  1  0.30820000  0.25150000  0.87700000  1.0
  C  C83  1  0.26250000  0.19590000  0.92010000  1.0
  C  C84  1  0.54060000  0.40840000  0.87650000  1.0
  C  C85  1  0.60850000  0.43450000  0.82990000  1.0
  C  C86  1  0.84780000  0.43720000  0.86960000  1.0
  C  C87  1  0.77670000  0.40850000  0.91540000  1.0
  C  C88  1  0.54600000  0.75700000  0.47790000  1.0
  C  C89  1  0.56740000  0.66470000  0.44940000  1.0
  C  C90  1  0.51990000  0.75170000  0.37610000  1.0
  C  C91  1  0.49050000  0.84200000  0.40410000  1.0
  C  C92  1  0.72880000  0.74700000  0.29210000  1.0
  C  C93  1  0.80260000  0.65410000  0.28010000  1.0
  C  C94  1  0.03590000  0.74310000  0.27130000  1.0
  C  C95  1  0.96120000  0.83410000  0.28350000  1.0
  C  C96  1  0.72670000  0.04800000  0.36960000  1.0
  C  C97  1  0.67520000  0.10900000  0.32730000  1.0
  C  C98  1  0.69180000  0.25150000  0.37700000  1.0
  C  C99  1  0.73750000  0.19590000  0.42010000  1.0
  C  C100  1  0.45940000  0.40840000  0.37650000  1.0
  C  C101  1  0.39150000  0.43450000  0.32990000  1.0
  C  C102  1  0.15220000  0.43720000  0.36960000  1.0
  C  C103  1  0.22330000  0.40850000  0.41540000  1.0
  C  C104  1  0.54600000  0.24300000  0.02210000  1.0
  C  C105  1  0.56740000  0.33530000  0.05060000  1.0
  C  C106  1  0.51990000  0.24830000  0.12390000  1.0
  C  C107  1  0.49050000  0.15800000  0.09590000  1.0
  C  C108  1  0.72880000  0.25300000  0.20790000  1.0
  C  C109  1  0.80260000  0.34590000  0.21990000  1.0
  C  C110  1  0.03590000  0.25690000  0.22870000  1.0
  C  C111  1  0.96120000  0.16590000  0.21650000  1.0
  C  C112  1  0.72670000  0.95200000  0.13040000  1.0
  C  C113  1  0.67520000  0.89100000  0.17270000  1.0
  C  C114  1  0.69180000  0.74850000  0.12300000  1.0
  C  C115  1  0.73750000  0.80410000  0.07990000  1.0
  C  C116  1  0.45940000  0.59160000  0.12350000  1.0
  C  C117  1  0.39150000  0.56550000  0.17010000  1.0
  C  C118  1  0.15220000  0.56280000  0.13040000  1.0
  C  C119  1  0.22330000  0.59150000  0.08460000  1.0
  S  S120  1  0.48000000  0.24866000  0.69370000  1.0
  S  S121  1  0.32734000  0.61083000  0.61872000  1.0
  S  S122  1  0.48000000  0.75134000  0.80630000  1.0
  S  S123  1  0.32734000  0.38917000  0.88128000  1.0
  S  S124  1  0.52000000  0.75134000  0.30630000  1.0
  S  S125  1  0.67266000  0.38917000  0.38128000  1.0
  S  S126  1  0.52000000  0.24866000  0.19370000  1.0
  S  S127  1  0.67266000  0.61083000  0.11872000  1.0
  N  N128  1  0.49290000  0.15430000  0.54445000  1.0
  N  N129  1  0.44470000  0.33880000  0.60205000  1.0
  N  N130  1  0.03970000  0.34790000  0.73053000  1.0
  N  N131  1  0.19570000  0.16230000  0.70590000  1.0
  N  N132  1  0.24560000  0.90780000  0.58400000  1.0
  N  N133  1  0.34040000  0.79110000  0.66910000  1.0
  N  N134  1  0.62050000  0.60590000  0.58010000  1.0
  N  N135  1  0.76410000  0.55000000  0.67380000  1.0
  N  N136  1  0.49290000  0.84570000  0.95555000  1.0
  N  N137  1  0.44470000  0.66120000  0.89795000  1.0
  N  N138  1  0.03970000  0.65210000  0.76947000  1.0
  N  N139  1  0.19570000  0.83770000  0.79410000  1.0
  N  N140  1  0.24560000  0.09220000  0.91600000  1.0
  N  N141  1  0.34040000  0.20890000  0.83090000  1.0
  N  N142  1  0.62050000  0.39410000  0.91990000  1.0
  N  N143  1  0.76410000  0.45000000  0.82620000  1.0
  N  N144  1  0.50710000  0.84570000  0.45555000  1.0
  N  N145  1  0.55530000  0.66120000  0.39795000  1.0
  N  N146  1  0.96030000  0.65210000  0.26947000  1.0
  N  N147  1  0.80430000  0.83770000  0.29410000  1.0
  N  N148  1  0.75440000  0.09220000  0.41600000  1.0
  N  N149  1  0.65960000  0.20890000  0.33090000  1.0
  N  N150  1  0.37950000  0.39410000  0.41990000  1.0
  N  N151  1  0.23590000  0.45000000  0.32620000  1.0
  N  N152  1  0.50710000  0.15430000  0.04445000  1.0
  N  N153  1  0.55530000  0.33880000  0.10205000  1.0
  N  N154  1  0.96030000  0.34790000  0.23053000  1.0
  N  N155  1  0.80430000  0.16230000  0.20590000  1.0
  N  N156  1  0.75440000  0.90780000  0.08400000  1.0
  N  N157  1  0.65960000  0.79110000  0.16910000  1.0
  N  N158  1  0.37950000  0.60590000  0.08010000  1.0
  N  N159  1  0.23590000  0.55000000  0.17380000  1.0
  O  O160  1  0.54310000  0.15110000  0.70956000  1.0
  O  O161  1  0.54810000  0.34400000  0.71283000  1.0
  O  O162  1  0.25830000  0.56740000  0.66459000  1.0
  O  O163  1  0.27360000  0.57840000  0.56772000  1.0
  O  O164  1  0.54310000  0.84890000  0.79044000  1.0
  O  O165  1  0.54810000  0.65600000  0.78717000  1.0
  O  O166  1  0.25830000  0.43260000  0.83541000  1.0
  O  O167  1  0.27360000  0.42160000  0.93228000  1.0
  O  O168  1  0.45690000  0.84890000  0.29044000  1.0
  O  O169  1  0.45190000  0.65600000  0.28717000  1.0
  O  O170  1  0.74170000  0.43260000  0.33541000  1.0
  O  O171  1  0.72640000  0.42160000  0.43228000  1.0
  O  O172  1  0.45690000  0.15110000  0.20956000  1.0
  O  O173  1  0.45190000  0.34400000  0.21283000  1.0
  O  O174  1  0.74170000  0.56740000  0.16459000  1.0
  O  O175  1  0.72640000  0.57840000  0.06772000  1.0
