# generated using pymatgen
data_V7SiAg6H4W5C8(N3O7)4
_symmetry_space_group_name_H-M   'P 1'
_cell_length_a   12.30800000
_cell_length_b   21.53200000
_cell_length_c   19.99800000
_cell_angle_alpha   90.00000000
_cell_angle_beta   90.00000000
_cell_angle_gamma   90.00000000
_symmetry_Int_Tables_number   1
_chemical_formula_structural   V7SiAg6H4W5C8(N3O7)4
_chemical_formula_sum   'V28 Si4 Ag24 H16 W20 C32 N48 O112'
_cell_volume   5299.78708829
_cell_formula_units_Z   4
loop_
 _symmetry_equiv_pos_site_id
 _symmetry_equiv_pos_as_xyz
  1  'x, y, z'
loop_
 _atom_site_type_symbol
 _atom_site_label
 _atom_site_symmetry_multiplicity
 _atom_site_fract_x
 _atom_site_fract_y
 _atom_site_fract_z
 _atom_site_occupancy
  V  V0  1  0.49789000  0.55603000  0.33413000  1.0
  V  V1  1  0.78315000  0.60508000  0.33365000  1.0
  V  V2  1  0.62750000  0.33762000  0.15826000  1.0
  V  V3  1  0.88714000  0.38288000  0.15796000  1.0
  V  V4  1  0.70276000  0.46474000  0.07425000  1.0
  V  V5  1  0.50211000  0.44397000  0.83413000  1.0
  V  V6  1  0.21685000  0.39492000  0.83365000  1.0
  V  V7  1  0.37250000  0.66238000  0.65826000  1.0
  V  V8  1  0.11286000  0.61712000  0.65796000  1.0
  V  V9  1  0.29724000  0.53526000  0.57425000  1.0
  V  V10  1  0.50211000  0.05603000  0.16587000  1.0
  V  V11  1  0.21685000  0.10508000  0.16635000  1.0
  V  V12  1  0.37250000  0.83762000  0.34174000  1.0
  V  V13  1  0.11286000  0.88288000  0.34204000  1.0
  V  V14  1  0.29724000  0.96474000  0.42575000  1.0
  V  V15  1  0.49789000  0.94397000  0.66587000  1.0
  V  V16  1  0.78315000  0.89492000  0.66635000  1.0
  V  V17  1  0.62750000  0.16238000  0.84174000  1.0
  V  V18  1  0.88714000  0.11712000  0.84204000  1.0
  V  V19  1  0.70276000  0.03526000  0.92575000  1.0
  V  V20  1  0.42328000  0.42870000  0.25000000  1.0
  V  V21  1  0.96792000  0.52306000  0.25000000  1.0
  V  V22  1  0.57672000  0.57130000  0.75000000  1.0
  V  V23  1  0.03208000  0.47694000  0.75000000  1.0
  V  V24  1  0.57672000  0.92870000  0.25000000  1.0
  V  V25  1  0.03208000  0.02306000  0.25000000  1.0
  V  V26  1  0.42328000  0.07130000  0.75000000  1.0
  V  V27  1  0.96792000  0.97694000  0.75000000  1.0
  Si  Si28  1  0.69950000  0.47080000  0.25000000  1.0
  Si  Si29  1  0.30050000  0.52920000  0.75000000  1.0
  Si  Si30  1  0.30050000  0.97080000  0.25000000  1.0
  Si  Si31  1  0.69950000  0.02920000  0.75000000  1.0
  Ag  Ag32  1  0.09440000  0.26157000  0.42688000  1.0
  Ag  Ag33  1  0.58365000  0.18851000  0.47209000  1.0
  Ag  Ag34  1  0.45450000  0.44930000  0.44870000  1.0
  Ag  Ag35  1  0.90560000  0.73843000  0.92688000  1.0
  Ag  Ag36  1  0.41635000  0.81149000  0.97209000  1.0
  Ag  Ag37  1  0.54550000  0.55070000  0.94870000  1.0
  Ag  Ag38  1  0.90560000  0.76157000  0.07312000  1.0
  Ag  Ag39  1  0.41635000  0.68851000  0.02791000  1.0
  Ag  Ag40  1  0.54550000  0.94930000  0.05130000  1.0
  Ag  Ag41  1  0.09440000  0.23843000  0.57312000  1.0
  Ag  Ag42  1  0.58365000  0.31149000  0.52791000  1.0
  Ag  Ag43  1  0.45450000  0.05070000  0.55130000  1.0
  Ag  Ag44  1  0.90560000  0.73843000  0.57312000  1.0
  Ag  Ag45  1  0.41635000  0.81149000  0.52791000  1.0
  Ag  Ag46  1  0.54550000  0.55070000  0.55130000  1.0
  Ag  Ag47  1  0.09440000  0.26157000  0.07312000  1.0
  Ag  Ag48  1  0.58365000  0.18851000  0.02791000  1.0
  Ag  Ag49  1  0.45450000  0.44930000  0.05130000  1.0
  Ag  Ag50  1  0.09440000  0.23843000  0.92688000  1.0
  Ag  Ag51  1  0.58365000  0.31149000  0.97209000  1.0
  Ag  Ag52  1  0.45450000  0.05070000  0.94870000  1.0
  Ag  Ag53  1  0.90560000  0.76157000  0.42688000  1.0
  Ag  Ag54  1  0.41635000  0.68851000  0.47209000  1.0
  Ag  Ag55  1  0.54550000  0.94930000  0.44870000  1.0
  H  H56  1  0.41460000  0.41130000  0.46960000  1.0
  H  H57  1  0.95200000  0.14280000  0.37480000  1.0
  H  H58  1  0.58540000  0.58870000  0.96960000  1.0
  H  H59  1  0.04800000  0.85720000  0.87480000  1.0
  H  H60  1  0.58540000  0.91130000  0.03040000  1.0
  H  H61  1  0.04800000  0.64280000  0.12520000  1.0
  H  H62  1  0.41460000  0.08870000  0.53040000  1.0
  H  H63  1  0.95200000  0.35720000  0.62520000  1.0
  H  H64  1  0.58540000  0.58870000  0.53040000  1.0
  H  H65  1  0.04800000  0.85720000  0.62520000  1.0
  H  H66  1  0.41460000  0.41130000  0.03040000  1.0
  H  H67  1  0.95200000  0.14280000  0.12520000  1.0
  H  H68  1  0.41460000  0.08870000  0.96960000  1.0
  H  H69  1  0.95200000  0.35720000  0.87480000  1.0
  H  H70  1  0.58540000  0.91130000  0.46960000  1.0
  H  H71  1  0.04800000  0.64280000  0.37480000  1.0
  W  W72  1  0.49789000  0.55603000  0.16587000  1.0
  W  W73  1  0.78315000  0.60508000  0.16635000  1.0
  W  W74  1  0.62750000  0.33762000  0.34174000  1.0
  W  W75  1  0.88714000  0.38288000  0.34204000  1.0
  W  W76  1  0.70276000  0.46474000  0.42575000  1.0
  W  W77  1  0.50211000  0.44397000  0.66587000  1.0
  W  W78  1  0.21685000  0.39492000  0.66635000  1.0
  W  W79  1  0.37250000  0.66238000  0.84174000  1.0
  W  W80  1  0.11286000  0.61712000  0.84204000  1.0
  W  W81  1  0.29724000  0.53526000  0.92575000  1.0
  W  W82  1  0.50211000  0.05603000  0.33413000  1.0
  W  W83  1  0.21685000  0.10508000  0.33365000  1.0
  W  W84  1  0.37250000  0.83762000  0.15826000  1.0
  W  W85  1  0.11286000  0.88288000  0.15796000  1.0
  W  W86  1  0.29724000  0.96474000  0.07425000  1.0
  W  W87  1  0.49789000  0.94397000  0.83413000  1.0
  W  W88  1  0.78315000  0.89492000  0.83365000  1.0
  W  W89  1  0.62750000  0.16238000  0.65826000  1.0
  W  W90  1  0.88714000  0.11712000  0.65796000  1.0
  W  W91  1  0.70276000  0.03526000  0.57425000  1.0
  C  C92  1  0.33200000  0.28210000  0.49000000  1.0
  C  C93  1  0.37700000  0.37410000  0.47100000  1.0
  C  C94  1  0.84450000  0.22710000  0.47390000  1.0
  C  C95  1  0.90600000  0.16530000  0.40300000  1.0
  C  C96  1  0.66800000  0.71790000  0.99000000  1.0
  C  C97  1  0.62300000  0.62590000  0.97100000  1.0
  C  C98  1  0.15550000  0.77290000  0.97390000  1.0
  C  C99  1  0.09400000  0.83470000  0.90300000  1.0
  C  C100  1  0.66800000  0.78210000  0.01000000  1.0
  C  C101  1  0.62300000  0.87410000  0.02900000  1.0
  C  C102  1  0.15550000  0.72710000  0.02610000  1.0
  C  C103  1  0.09400000  0.66530000  0.09700000  1.0
  C  C104  1  0.33200000  0.21790000  0.51000000  1.0
  C  C105  1  0.37700000  0.12590000  0.52900000  1.0
  C  C106  1  0.84450000  0.27290000  0.52610000  1.0
  C  C107  1  0.90600000  0.33470000  0.59700000  1.0
  C  C108  1  0.66800000  0.71790000  0.51000000  1.0
  C  C109  1  0.62300000  0.62590000  0.52900000  1.0
  C  C110  1  0.15550000  0.77290000  0.52610000  1.0
  C  C111  1  0.09400000  0.83470000  0.59700000  1.0
  C  C112  1  0.33200000  0.28210000  0.01000000  1.0
  C  C113  1  0.37700000  0.37410000  0.02900000  1.0
  C  C114  1  0.84450000  0.22710000  0.02610000  1.0
  C  C115  1  0.90600000  0.16530000  0.09700000  1.0
  C  C116  1  0.33200000  0.21790000  0.99000000  1.0
  C  C117  1  0.37700000  0.12590000  0.97100000  1.0
  C  C118  1  0.84450000  0.27290000  0.97390000  1.0
  C  C119  1  0.90600000  0.33470000  0.90300000  1.0
  C  C120  1  0.66800000  0.78210000  0.49000000  1.0
  C  C121  1  0.62300000  0.87410000  0.47100000  1.0
  C  C122  1  0.15550000  0.72710000  0.47390000  1.0
  C  C123  1  0.09400000  0.66530000  0.40300000  1.0
  N  N124  1  0.24400000  0.30780000  0.46220000  1.0
  N  N125  1  0.27700000  0.36730000  0.44980000  1.0
  N  N126  1  0.41630000  0.32240000  0.49430000  1.0
  N  N127  1  0.75960000  0.19370000  0.45630000  1.0
  N  N128  1  0.93630000  0.21060000  0.44200000  1.0
  N  N129  1  0.79900000  0.15620000  0.40800000  1.0
  N  N130  1  0.75600000  0.69220000  0.96220000  1.0
  N  N131  1  0.72300000  0.63270000  0.94980000  1.0
  N  N132  1  0.58370000  0.67760000  0.99430000  1.0
  N  N133  1  0.24040000  0.80630000  0.95630000  1.0
  N  N134  1  0.06370000  0.78940000  0.94200000  1.0
  N  N135  1  0.20100000  0.84380000  0.90800000  1.0
  N  N136  1  0.75600000  0.80780000  0.03780000  1.0
  N  N137  1  0.72300000  0.86730000  0.05020000  1.0
  N  N138  1  0.58370000  0.82240000  0.00570000  1.0
  N  N139  1  0.24040000  0.69370000  0.04370000  1.0
  N  N140  1  0.06370000  0.71060000  0.05800000  1.0
  N  N141  1  0.20100000  0.65620000  0.09200000  1.0
  N  N142  1  0.24400000  0.19220000  0.53780000  1.0
  N  N143  1  0.27700000  0.13270000  0.55020000  1.0
  N  N144  1  0.41630000  0.17760000  0.50570000  1.0
  N  N145  1  0.75960000  0.30630000  0.54370000  1.0
  N  N146  1  0.93630000  0.28940000  0.55800000  1.0
  N  N147  1  0.79900000  0.34380000  0.59200000  1.0
  N  N148  1  0.75600000  0.69220000  0.53780000  1.0
  N  N149  1  0.72300000  0.63270000  0.55020000  1.0
  N  N150  1  0.58370000  0.67760000  0.50570000  1.0
  N  N151  1  0.24040000  0.80630000  0.54370000  1.0
  N  N152  1  0.06370000  0.78940000  0.55800000  1.0
  N  N153  1  0.20100000  0.84380000  0.59200000  1.0
  N  N154  1  0.24400000  0.30780000  0.03780000  1.0
  N  N155  1  0.27700000  0.36730000  0.05020000  1.0
  N  N156  1  0.41630000  0.32240000  0.00570000  1.0
  N  N157  1  0.75960000  0.19370000  0.04370000  1.0
  N  N158  1  0.93630000  0.21060000  0.05800000  1.0
  N  N159  1  0.79900000  0.15620000  0.09200000  1.0
  N  N160  1  0.24400000  0.19220000  0.96220000  1.0
  N  N161  1  0.27700000  0.13270000  0.94980000  1.0
  N  N162  1  0.41630000  0.17760000  0.99430000  1.0
  N  N163  1  0.75960000  0.30630000  0.95630000  1.0
  N  N164  1  0.93630000  0.28940000  0.94200000  1.0
  N  N165  1  0.79900000  0.34380000  0.90800000  1.0
  N  N166  1  0.75600000  0.80780000  0.46220000  1.0
  N  N167  1  0.72300000  0.86730000  0.44980000  1.0
  N  N168  1  0.58370000  0.82240000  0.49430000  1.0
  N  N169  1  0.24040000  0.69370000  0.45630000  1.0
  N  N170  1  0.06370000  0.71060000  0.44200000  1.0
  N  N171  1  0.20100000  0.65620000  0.40800000  1.0
  O  O172  1  0.94630000  0.46010000  0.31530000  1.0
  O  O173  1  0.83700000  0.42110000  0.07510000  1.0
  O  O174  1  0.77510000  0.53660000  0.39340000  1.0
  O  O175  1  0.39520000  0.49120000  0.31530000  1.0
  O  O176  1  0.78130000  0.32030000  0.14330000  1.0
  O  O177  1  0.72320000  0.42990000  0.18370000  1.0
  O  O178  1  0.62680000  0.60260000  0.32780000  1.0
  O  O179  1  0.50390000  0.38300000  0.18630000  1.0
  O  O180  1  0.63130000  0.38480000  0.07820000  1.0
  O  O181  1  0.57050000  0.50480000  0.39450000  1.0
  O  O182  1  0.93270000  0.58570000  0.31690000  1.0
  O  O183  1  0.05370000  0.53990000  0.81530000  1.0
  O  O184  1  0.16300000  0.57890000  0.57510000  1.0
  O  O185  1  0.22490000  0.46340000  0.89340000  1.0
  O  O186  1  0.60480000  0.50880000  0.81530000  1.0
  O  O187  1  0.21870000  0.67970000  0.64330000  1.0
  O  O188  1  0.27680000  0.57010000  0.68370000  1.0
  O  O189  1  0.37320000  0.39740000  0.82780000  1.0
  O  O190  1  0.49610000  0.61700000  0.68630000  1.0
  O  O191  1  0.36870000  0.61520000  0.57820000  1.0
  O  O192  1  0.42950000  0.49520000  0.89450000  1.0
  O  O193  1  0.06730000  0.41430000  0.81690000  1.0
  O  O194  1  0.05370000  0.96010000  0.18470000  1.0
  O  O195  1  0.16300000  0.92110000  0.42490000  1.0
  O  O196  1  0.22490000  0.03660000  0.10660000  1.0
  O  O197  1  0.60480000  0.99120000  0.18470000  1.0
  O  O198  1  0.21870000  0.82030000  0.35670000  1.0
  O  O199  1  0.27680000  0.92990000  0.31630000  1.0
  O  O200  1  0.37320000  0.10260000  0.17220000  1.0
  O  O201  1  0.49610000  0.88300000  0.31370000  1.0
  O  O202  1  0.36870000  0.88480000  0.42180000  1.0
  O  O203  1  0.42950000  0.00480000  0.10550000  1.0
  O  O204  1  0.06730000  0.08570000  0.18310000  1.0
  O  O205  1  0.94630000  0.03990000  0.68470000  1.0
  O  O206  1  0.83700000  0.07890000  0.92490000  1.0
  O  O207  1  0.77510000  0.96340000  0.60660000  1.0
  O  O208  1  0.39520000  0.00880000  0.68470000  1.0
  O  O209  1  0.78130000  0.17970000  0.85670000  1.0
  O  O210  1  0.72320000  0.07010000  0.81630000  1.0
  O  O211  1  0.62680000  0.89740000  0.67220000  1.0
  O  O212  1  0.50390000  0.11700000  0.81370000  1.0
  O  O213  1  0.63130000  0.11520000  0.92180000  1.0
  O  O214  1  0.57050000  0.99520000  0.60550000  1.0
  O  O215  1  0.93270000  0.91430000  0.68310000  1.0
  O  O216  1  0.05370000  0.53990000  0.68470000  1.0
  O  O217  1  0.16300000  0.57890000  0.92490000  1.0
  O  O218  1  0.22490000  0.46340000  0.60660000  1.0
  O  O219  1  0.60480000  0.50880000  0.68470000  1.0
  O  O220  1  0.21870000  0.67970000  0.85670000  1.0
  O  O221  1  0.27680000  0.57010000  0.81630000  1.0
  O  O222  1  0.37320000  0.39740000  0.67220000  1.0
  O  O223  1  0.49610000  0.61700000  0.81370000  1.0
  O  O224  1  0.36870000  0.61520000  0.92180000  1.0
  O  O225  1  0.42950000  0.49520000  0.60550000  1.0
  O  O226  1  0.06730000  0.41430000  0.68310000  1.0
  O  O227  1  0.94630000  0.46010000  0.18470000  1.0
  O  O228  1  0.83700000  0.42110000  0.42490000  1.0
  O  O229  1  0.77510000  0.53660000  0.10660000  1.0
  O  O230  1  0.39520000  0.49120000  0.18470000  1.0
  O  O231  1  0.78130000  0.32030000  0.35670000  1.0
  O  O232  1  0.72320000  0.42990000  0.31630000  1.0
  O  O233  1  0.62680000  0.60260000  0.17220000  1.0
  O  O234  1  0.50390000  0.38300000  0.31370000  1.0
  O  O235  1  0.63130000  0.38480000  0.42180000  1.0
  O  O236  1  0.57050000  0.50480000  0.10550000  1.0
  O  O237  1  0.93270000  0.58570000  0.18310000  1.0
  O  O238  1  0.94630000  0.03990000  0.81530000  1.0
  O  O239  1  0.83700000  0.07890000  0.57510000  1.0
  O  O240  1  0.77510000  0.96340000  0.89340000  1.0
  O  O241  1  0.39520000  0.00880000  0.81530000  1.0
  O  O242  1  0.78130000  0.17970000  0.64330000  1.0
  O  O243  1  0.72320000  0.07010000  0.68370000  1.0
  O  O244  1  0.62680000  0.89740000  0.82780000  1.0
  O  O245  1  0.50390000  0.11700000  0.68630000  1.0
  O  O246  1  0.63130000  0.11520000  0.57820000  1.0
  O  O247  1  0.57050000  0.99520000  0.89450000  1.0
  O  O248  1  0.93270000  0.91430000  0.81690000  1.0
  O  O249  1  0.05370000  0.96010000  0.31530000  1.0
  O  O250  1  0.16300000  0.92110000  0.07510000  1.0
  O  O251  1  0.22490000  0.03660000  0.39340000  1.0
  O  O252  1  0.60480000  0.99120000  0.31530000  1.0
  O  O253  1  0.21870000  0.82030000  0.14330000  1.0
  O  O254  1  0.27680000  0.92990000  0.18370000  1.0
  O  O255  1  0.37320000  0.10260000  0.32780000  1.0
  O  O256  1  0.49610000  0.88300000  0.18630000  1.0
  O  O257  1  0.36870000  0.88480000  0.07820000  1.0
  O  O258  1  0.42950000  0.00480000  0.39450000  1.0
  O  O259  1  0.06730000  0.08570000  0.31690000  1.0
  O  O260  1  0.64500000  0.31700000  0.25000000  1.0
  O  O261  1  0.89400000  0.36080000  0.25000000  1.0
  O  O262  1  0.45600000  0.59140000  0.25000000  1.0
  O  O263  1  0.57350000  0.49490000  0.25000000  1.0
  O  O264  1  0.78100000  0.52950000  0.25000000  1.0
  O  O265  1  0.78000000  0.65000000  0.25000000  1.0
  O  O266  1  0.35500000  0.68300000  0.75000000  1.0
  O  O267  1  0.10600000  0.63920000  0.75000000  1.0
  O  O268  1  0.54400000  0.40860000  0.75000000  1.0
  O  O269  1  0.42650000  0.50510000  0.75000000  1.0
  O  O270  1  0.21900000  0.47050000  0.75000000  1.0
  O  O271  1  0.22000000  0.35000000  0.75000000  1.0
  O  O272  1  0.35500000  0.81700000  0.25000000  1.0
  O  O273  1  0.10600000  0.86080000  0.25000000  1.0
  O  O274  1  0.54400000  0.09140000  0.25000000  1.0
  O  O275  1  0.42650000  0.99490000  0.25000000  1.0
  O  O276  1  0.21900000  0.02950000  0.25000000  1.0
  O  O277  1  0.22000000  0.15000000  0.25000000  1.0
  O  O278  1  0.64500000  0.18300000  0.75000000  1.0
  O  O279  1  0.89400000  0.13920000  0.75000000  1.0
  O  O280  1  0.45600000  0.90860000  0.75000000  1.0
  O  O281  1  0.57350000  0.00510000  0.75000000  1.0
  O  O282  1  0.78100000  0.97050000  0.75000000  1.0
  O  O283  1  0.78000000  0.85000000  0.75000000  1.0
