# generated using pymatgen
data_Cd7H48C64(N8O13)2
_symmetry_space_group_name_H-M   'P 1'
_cell_length_a   7.50900000
_cell_length_b   11.88100000
_cell_length_c   20.94200000
_cell_angle_alpha   96.62300000
_cell_angle_beta   92.47400000
_cell_angle_gamma   102.01500000
_symmetry_Int_Tables_number   1
_chemical_formula_structural   Cd7H48C64(N8O13)2
_chemical_formula_sum   'Cd7 H48 C64 N16 O26'
_cell_volume   1810.86029130
_cell_formula_units_Z   1
loop_
 _symmetry_equiv_pos_site_id
 _symmetry_equiv_pos_as_xyz
  1  'x, y, z'
loop_
 _atom_site_type_symbol
 _atom_site_label
 _atom_site_symmetry_multiplicity
 _atom_site_fract_x
 _atom_site_fract_y
 _atom_site_fract_z
 _atom_site_occupancy
  Cd  Cd0  1  0.65169000  0.85364000  0.09578000  1.0
  Cd  Cd1  1  0.74880000  0.01980000  0.47812000  1.0
  Cd  Cd2  1  0.39373000  0.17181000  0.08465000  1.0
  Cd  Cd3  1  0.34831000  0.14636000  0.90422000  1.0
  Cd  Cd4  1  0.25120000  0.98020000  0.52188000  1.0
  Cd  Cd5  1  0.60627000  0.82819000  0.91535000  1.0
  Cd  Cd6  1  0.00000000  0.00000000  0.00000000  1.0
  H  H7  1  0.05460000  0.79380000  0.14210000  1.0
  H  H8  1  0.59930000  0.56150000  0.12800000  1.0
  H  H9  1  0.84040000  0.46920000  0.16300000  1.0
  H  H10  1  0.22480000  0.54840000  0.15860000  1.0
  H  H11  1  0.28530000  0.68360000  0.16560000  1.0
  H  H12  1  0.98820000  0.65940000  0.27270000  1.0
  H  H13  1  0.13840000  0.77160000  0.27140000  1.0
  H  H14  1  0.96850000  0.57240000  0.39050000  1.0
  H  H15  1  0.03030000  0.68470000  0.49600000  1.0
  H  H16  1  0.26770000  0.88210000  0.37530000  1.0
  H  H17  1  0.06850000  0.46480000  0.26160000  1.0
  H  H18  1  0.21100000  0.50580000  0.32080000  1.0
  H  H19  1  0.52670000  0.43860000  0.31240000  1.0
  H  H20  1  0.17460000  0.35110000  0.16080000  1.0
  H  H21  1  0.63600000  0.30340000  0.23440000  1.0
  H  H22  1  0.62690000  0.89160000  0.32560000  1.0
  H  H23  1  0.64440000  0.72280000  0.47400000  1.0
  H  H24  1  0.47310000  0.58640000  0.38730000  1.0
  H  H25  1  0.46830000  0.74560000  0.24160000  1.0
  H  H26  1  0.51230000  0.62470000  0.24840000  1.0
  H  H27  1  0.93650000  0.05960000  0.26950000  1.0
  H  H28  1  0.55110000  0.07040000  0.29770000  1.0
  H  H29  1  0.29490000  0.48130000  0.02020000  1.0
  H  H30  1  0.66100000  0.01200000  0.01900000  1.0
  H  H31  1  0.94540000  0.20620000  0.85790000  1.0
  H  H32  1  0.40070000  0.43850000  0.87200000  1.0
  H  H33  1  0.15960000  0.53080000  0.83700000  1.0
  H  H34  1  0.77520000  0.45160000  0.84140000  1.0
  H  H35  1  0.71470000  0.31640000  0.83440000  1.0
  H  H36  1  0.01180000  0.34060000  0.72730000  1.0
  H  H37  1  0.86160000  0.22840000  0.72860000  1.0
  H  H38  1  0.03150000  0.42760000  0.60950000  1.0
  H  H39  1  0.96970000  0.31530000  0.50400000  1.0
  H  H40  1  0.73230000  0.11790000  0.62470000  1.0
  H  H41  1  0.93150000  0.53520000  0.73840000  1.0
  H  H42  1  0.78900000  0.49420000  0.67920000  1.0
  H  H43  1  0.47330000  0.56140000  0.68760000  1.0
  H  H44  1  0.82540000  0.64890000  0.83920000  1.0
  H  H45  1  0.36400000  0.69660000  0.76560000  1.0
  H  H46  1  0.37310000  0.10840000  0.67440000  1.0
  H  H47  1  0.35560000  0.27720000  0.52600000  1.0
  H  H48  1  0.52690000  0.41360000  0.61270000  1.0
  H  H49  1  0.53170000  0.25440000  0.75840000  1.0
  H  H50  1  0.48770000  0.37530000  0.75160000  1.0
  H  H51  1  0.06350000  0.94040000  0.73050000  1.0
  H  H52  1  0.44890000  0.92960000  0.70230000  1.0
  H  H53  1  0.70510000  0.51870000  0.97980000  1.0
  H  H54  1  0.33900000  0.98800000  0.98100000  1.0
  C  C55  1  0.97000000  0.72460000  0.14286000  1.0
  C  C56  1  0.72190000  0.59780000  0.13540000  1.0
  C  C57  1  0.85450000  0.54560000  0.15450000  1.0
  C  C58  1  0.20010000  0.61990000  0.17998000  1.0
  C  C59  1  0.23880000  0.62320000  0.25423000  1.0
  C  C60  1  0.11330000  0.69670000  0.28720000  1.0
  C  C61  1  0.03670000  0.64790000  0.40000000  1.0
  C  C62  1  0.07040000  0.71070000  0.45780000  1.0
  C  C63  1  0.20090000  0.81870000  0.39220000  1.0
  C  C64  1  0.19560000  0.49970000  0.27420000  1.0
  C  C65  1  0.46920000  0.40510000  0.27250000  1.0
  C  C66  1  0.27650000  0.35610000  0.18870000  1.0
  C  C67  1  0.52900000  0.33020000  0.22930000  1.0
  C  C68  1  0.60990000  0.83290000  0.35200000  1.0
  C  C69  1  0.61830000  0.73990000  0.43290000  1.0
  C  C70  1  0.52500000  0.66400000  0.38530000  1.0
  C  C71  1  0.44420000  0.68040000  0.26629000  1.0
  C  C72  1  0.43800000  0.13140000  0.40920000  1.0
  C  C73  1  0.33140000  0.09280000  0.34478000  1.0
  C  C74  1  0.14220000  0.08330000  0.33708000  1.0
  C  C75  1  0.06040000  0.06050000  0.27520000  1.0
  C  C76  1  0.15510000  0.03900000  0.22112000  1.0
  C  C77  1  0.34160000  0.03650000  0.22932000  1.0
  C  C78  1  0.42660000  0.06720000  0.29177000  1.0
  C  C79  1  0.44980000  0.99190000  0.17712000  1.0
  C  C80  1  0.04730000  0.01560000  0.15670000  1.0
  C  C81  1  0.02370000  0.08570000  0.39340000  1.0
  C  C82  1  0.31150000  0.69490000  0.00580000  1.0
  C  C83  1  0.14530000  0.59680000  0.00378000  1.0
  C  C84  1  0.96630000  0.60920000  0.99112000  1.0
  C  C85  1  0.17570000  0.48910000  0.01210000  1.0
  C  C86  1  0.91740000  0.72370000  0.98590000  1.0
  C  C87  1  0.03000000  0.27540000  0.85714000  1.0
  C  C88  1  0.27810000  0.40220000  0.86460000  1.0
  C  C89  1  0.14550000  0.45440000  0.84550000  1.0
  C  C90  1  0.79990000  0.38010000  0.82002000  1.0
  C  C91  1  0.76120000  0.37680000  0.74577000  1.0
  C  C92  1  0.88670000  0.30330000  0.71280000  1.0
  C  C93  1  0.96330000  0.35210000  0.60000000  1.0
  C  C94  1  0.92960000  0.28930000  0.54220000  1.0
  C  C95  1  0.79910000  0.18130000  0.60780000  1.0
  C  C96  1  0.80440000  0.50030000  0.72580000  1.0
  C  C97  1  0.53080000  0.59490000  0.72750000  1.0
  C  C98  1  0.72350000  0.64390000  0.81130000  1.0
  C  C99  1  0.47100000  0.66980000  0.77070000  1.0
  C  C100  1  0.39010000  0.16710000  0.64800000  1.0
  C  C101  1  0.38170000  0.26010000  0.56710000  1.0
  C  C102  1  0.47500000  0.33600000  0.61470000  1.0
  C  C103  1  0.55580000  0.31960000  0.73371000  1.0
  C  C104  1  0.56200000  0.86860000  0.59080000  1.0
  C  C105  1  0.66860000  0.90720000  0.65522000  1.0
  C  C106  1  0.85780000  0.91670000  0.66292000  1.0
  C  C107  1  0.93960000  0.93950000  0.72480000  1.0
  C  C108  1  0.84490000  0.96100000  0.77888000  1.0
  C  C109  1  0.65840000  0.96350000  0.77068000  1.0
  C  C110  1  0.57340000  0.93280000  0.70823000  1.0
  C  C111  1  0.55020000  0.00810000  0.82288000  1.0
  C  C112  1  0.95270000  0.98440000  0.84330000  1.0
  C  C113  1  0.97630000  0.91430000  0.60660000  1.0
  C  C114  1  0.68850000  0.30510000  0.99420000  1.0
  C  C115  1  0.85470000  0.40320000  0.99622000  1.0
  C  C116  1  0.03370000  0.39080000  0.00888000  1.0
  C  C117  1  0.82430000  0.51090000  0.98790000  1.0
  C  C118  1  0.08260000  0.27630000  0.01410000  1.0
  N  N119  1  0.79170000  0.71170000  0.12832000  1.0
  N  N120  1  0.01430000  0.62740000  0.15871000  1.0
  N  N121  1  0.30780000  0.42220000  0.24647000  1.0
  N  N122  1  0.40480000  0.30030000  0.17647000  1.0
  N  N123  1  0.67040000  0.84690000  0.41279000  1.0
  N  N124  1  0.51990000  0.72250000  0.33242000  1.0
  N  N125  1  0.17120000  0.81770000  0.45321000  1.0
  N  N126  1  0.12360000  0.71740000  0.35695000  1.0
  N  N127  1  0.20830000  0.28830000  0.87168000  1.0
  N  N128  1  0.98570000  0.37260000  0.84129000  1.0
  N  N129  1  0.69220000  0.57780000  0.75353000  1.0
  N  N130  1  0.59520000  0.69970000  0.82353000  1.0
  N  N131  1  0.32960000  0.15310000  0.58721000  1.0
  N  N132  1  0.48010000  0.27750000  0.66758000  1.0
  N  N133  1  0.82880000  0.18230000  0.54679000  1.0
  N  N134  1  0.87640000  0.28260000  0.64305000  1.0
  O  O135  1  0.08220000  0.07250000  0.44740000  1.0
  O  O136  1  0.86010000  0.09560000  0.38153000  1.0
  O  O137  1  0.49570000  0.23700000  0.42244000  1.0
  O  O138  1  0.46820000  0.05310000  0.44219000  1.0
  O  O139  1  0.88020000  0.97940000  0.15708000  1.0
  O  O140  1  0.13150000  0.03460000  0.10693000  1.0
  O  O141  1  0.46800000  0.88950000  0.17855000  1.0
  O  O142  1  0.52440000  0.05280000  0.13706000  1.0
  O  O143  1  0.40620000  0.71820000  0.05728000  1.0
  O  O144  1  0.34520000  0.73880000  0.95417000  1.0
  O  O145  1  0.76020000  0.71730000  0.96157000  1.0
  O  O146  1  0.02940000  0.81480000  0.00632000  1.0
  O  O147  1  0.69550000  0.94740000  0.01155000  1.0
  O  O148  1  0.91780000  0.92750000  0.55260000  1.0
  O  O149  1  0.13990000  0.90440000  0.61847000  1.0
  O  O150  1  0.50430000  0.76300000  0.57756000  1.0
  O  O151  1  0.53180000  0.94690000  0.55781000  1.0
  O  O152  1  0.11980000  0.02060000  0.84292000  1.0
  O  O153  1  0.86850000  0.96540000  0.89307000  1.0
  O  O154  1  0.53200000  0.11050000  0.82145000  1.0
  O  O155  1  0.47560000  0.94720000  0.86294000  1.0
  O  O156  1  0.59380000  0.28180000  0.94272000  1.0
  O  O157  1  0.65480000  0.26120000  0.04583000  1.0
  O  O158  1  0.23980000  0.28270000  0.03843000  1.0
  O  O159  1  0.97060000  0.18520000  0.99368000  1.0
  O  O160  1  0.30450000  0.05260000  0.98845000  1.0
