# generated using pymatgen
data_CeH4C5O8
_symmetry_space_group_name_H-M   'P 1'
_cell_length_a   6.09970000
_cell_length_b   7.65280000
_cell_length_c   22.53300000
_cell_angle_alpha   90.00000000
_cell_angle_beta   91.60600000
_cell_angle_gamma   90.00000000
_symmetry_Int_Tables_number   1
_chemical_formula_structural   CeH4C5O8
_chemical_formula_sum   'Ce4 H16 C20 O32'
_cell_volume   1051.42240033
_cell_formula_units_Z   4
loop_
 _symmetry_equiv_pos_site_id
 _symmetry_equiv_pos_as_xyz
  1  'x, y, z'
loop_
 _atom_site_type_symbol
 _atom_site_label
 _atom_site_symmetry_multiplicity
 _atom_site_fract_x
 _atom_site_fract_y
 _atom_site_fract_z
 _atom_site_occupancy
  Ce  Ce0  1  0.54512000  0.50171000  0.85391000  1.0
  Ce  Ce1  1  0.45488000  0.00171000  0.64609000  1.0
  Ce  Ce2  1  0.45488000  0.49829000  0.14609000  1.0
  Ce  Ce3  1  0.54512000  0.99829000  0.35391000  1.0
  H  H4  1  0.44000000  0.12500000  0.88370000  1.0
  H  H5  1  0.30200000  0.22800000  0.74190000  1.0
  H  H6  1  0.12590000  0.06440000  0.87470000  1.0
  H  H7  1  0.04100000  0.97800000  0.78010000  1.0
  H  H8  1  0.56000000  0.62500000  0.61630000  1.0
  H  H9  1  0.69800000  0.72800000  0.75810000  1.0
  H  H10  1  0.87410000  0.56440000  0.62530000  1.0
  H  H11  1  0.95900000  0.47800000  0.71990000  1.0
  H  H12  1  0.56000000  0.87500000  0.11630000  1.0
  H  H13  1  0.69800000  0.77200000  0.25810000  1.0
  H  H14  1  0.87410000  0.93560000  0.12530000  1.0
  H  H15  1  0.95900000  0.02200000  0.21990000  1.0
  H  H16  1  0.44000000  0.37500000  0.38370000  1.0
  H  H17  1  0.30200000  0.27200000  0.24190000  1.0
  H  H18  1  0.12590000  0.43560000  0.37470000  1.0
  H  H19  1  0.04100000  0.52200000  0.28010000  1.0
  C  C20  1  0.04680000  0.30570000  0.84011000  1.0
  C  C21  1  0.18230000  0.13930000  0.84330000  1.0
  C  C22  1  0.18370000  0.03550000  0.78552000  1.0
  C  C23  1  0.36110000  0.89410000  0.78871000  1.0
  C  C24  1  0.58210000  0.42420000  0.00133000  1.0
  C  C25  1  0.95320000  0.80570000  0.65989000  1.0
  C  C26  1  0.81770000  0.63930000  0.65670000  1.0
  C  C27  1  0.81630000  0.53550000  0.71448000  1.0
  C  C28  1  0.63890000  0.39410000  0.71129000  1.0
  C  C29  1  0.41790000  0.92420000  0.49867000  1.0
  C  C30  1  0.95320000  0.69430000  0.15989000  1.0
  C  C31  1  0.81770000  0.86070000  0.15670000  1.0
  C  C32  1  0.81630000  0.96450000  0.21448000  1.0
  C  C33  1  0.63890000  0.10590000  0.21129000  1.0
  C  C34  1  0.41790000  0.57580000  0.99867000  1.0
  C  C35  1  0.04680000  0.19430000  0.34011000  1.0
  C  C36  1  0.18230000  0.36070000  0.34330000  1.0
  C  C37  1  0.18370000  0.46450000  0.28552000  1.0
  C  C38  1  0.36110000  0.60590000  0.28871000  1.0
  C  C39  1  0.58210000  0.07580000  0.50133000  1.0
  O  O40  1  0.84620000  0.28930000  0.83336000  1.0
  O  O41  1  0.14560000  0.44730000  0.84532000  1.0
  O  O42  1  0.39990000  0.18600000  0.85829000  1.0
  O  O43  1  0.22030000  0.14030000  0.73470000  1.0
  O  O44  1  0.35040000  0.78680000  0.82974000  1.0
  O  O45  1  0.51110000  0.89800000  0.74922000  1.0
  O  O46  1  0.66150000  0.36940000  0.95368000  1.0
  O  O47  1  0.62330000  0.36810000  0.05176000  1.0
  O  O48  1  0.15380000  0.78930000  0.66666667  1.0
  O  O49  1  0.85440000  0.94730000  0.65468000  1.0
  O  O50  1  0.60010000  0.68600000  0.64171000  1.0
  O  O51  1  0.77970000  0.64030000  0.76530000  1.0
  O  O52  1  0.64960000  0.28680000  0.67026000  1.0
  O  O53  1  0.48890000  0.39800000  0.75078000  1.0
  O  O54  1  0.33850000  0.86940000  0.54632000  1.0
  O  O55  1  0.37670000  0.86810000  0.44824000  1.0
  O  O56  1  0.15380000  0.71070000  0.16664000  1.0
  O  O57  1  0.85440000  0.55270000  0.15468000  1.0
  O  O58  1  0.60010000  0.81400000  0.14171000  1.0
  O  O59  1  0.77970000  0.85970000  0.26530000  1.0
  O  O60  1  0.64960000  0.21320000  0.17026000  1.0
  O  O61  1  0.48890000  0.10200000  0.25078000  1.0
  O  O62  1  0.33850000  0.63060000  0.04632000  1.0
  O  O63  1  0.37670000  0.63190000  0.94824000  1.0
  O  O64  1  0.84620000  0.21070000  0.33333333  1.0
  O  O65  1  0.14560000  0.05270000  0.34532000  1.0
  O  O66  1  0.39990000  0.31400000  0.35829000  1.0
  O  O67  1  0.22030000  0.35970000  0.23470000  1.0
  O  O68  1  0.35040000  0.71320000  0.32974000  1.0
  O  O69  1  0.51110000  0.60200000  0.24922000  1.0
  O  O70  1  0.66150000  0.13060000  0.45368000  1.0
  O  O71  1  0.62330000  0.13190000  0.55176000  1.0
