# generated using pymatgen
data_AgH12(C3N)6
_symmetry_space_group_name_H-M   'P 1'
_cell_length_a   21.95040000
_cell_length_b   16.70950000
_cell_length_c   25.61280000
_cell_angle_alpha   90.00000000
_cell_angle_beta   115.36600000
_cell_angle_gamma   90.00000000
_symmetry_Int_Tables_number   1
_chemical_formula_structural   AgH12(C3N)6
_chemical_formula_sum   'Ag16 H192 C288 N96'
_cell_volume   8488.56363214
_cell_formula_units_Z   16
loop_
 _symmetry_equiv_pos_site_id
 _symmetry_equiv_pos_as_xyz
  1  'x, y, z'
loop_
 _atom_site_type_symbol
 _atom_site_label
 _atom_site_symmetry_multiplicity
 _atom_site_fract_x
 _atom_site_fract_y
 _atom_site_fract_z
 _atom_site_occupancy
  Ag  Ag0  1  0.27363000  0.20879000  0.86794000  1.0
  Ag  Ag1  1  0.79557000  0.50313000  0.36744000  1.0
  Ag  Ag2  1  0.77363000  0.70879000  0.86794000  1.0
  Ag  Ag3  1  0.29557000  0.00313000  0.36744000  1.0
  Ag  Ag4  1  0.72637000  0.20879000  0.63206000  1.0
  Ag  Ag5  1  0.20443000  0.50313000  0.13256000  1.0
  Ag  Ag6  1  0.22637000  0.70879000  0.63206000  1.0
  Ag  Ag7  1  0.70443000  0.00313000  0.13256000  1.0
  Ag  Ag8  1  0.72637000  0.79121000  0.13206000  1.0
  Ag  Ag9  1  0.20443000  0.49687000  0.63256000  1.0
  Ag  Ag10  1  0.22637000  0.29121000  0.13206000  1.0
  Ag  Ag11  1  0.70443000  0.99687000  0.63256000  1.0
  Ag  Ag12  1  0.27363000  0.79121000  0.36794000  1.0
  Ag  Ag13  1  0.79557000  0.49687000  0.86744000  1.0
  Ag  Ag14  1  0.77363000  0.29121000  0.36794000  1.0
  Ag  Ag15  1  0.29557000  0.99687000  0.86744000  1.0
  H  H16  1  0.40140000  0.90250000  0.35180000  1.0
  H  H17  1  0.58490000  0.53970000  0.88920000  1.0
  H  H18  1  0.81080000  0.56590000  0.48480000  1.0
  H  H19  1  0.50130000  0.88420000  0.54880000  1.0
  H  H20  1  0.38470000  0.30950000  0.84890000  1.0
  H  H21  1  0.76340000  0.63310000  0.53580000  1.0
  H  H22  1  0.74530000  0.58040000  0.03810000  1.0
  H  H23  1  0.50160000  0.83620000  0.39570000  1.0
  H  H24  1  0.47510000  0.33760000  0.04540000  1.0
  H  H25  1  0.79370000  0.64650000  0.98860000  1.0
  H  H26  1  0.48090000  0.38330000  0.89300000  1.0
  H  H27  1  0.77580000  0.68950000  0.65980000  1.0
  H  H28  1  0.63820000  0.60980000  0.84440000  1.0
  H  H29  1  0.82020000  0.67380000  0.75860000  1.0
  H  H30  1  0.37770000  0.26710000  0.99490000  1.0
  H  H31  1  0.61400000  0.79180000  0.66540000  1.0
  H  H32  1  0.61580000  0.70390000  0.38590000  1.0
  H  H33  1  0.66330000  0.77400000  0.76290000  1.0
  H  H34  1  0.72900000  0.56670000  0.15550000  1.0
  H  H35  1  0.40190000  0.95360000  0.50020000  1.0
  H  H36  1  0.77760000  0.57820000  0.25400000  1.0
  H  H37  1  0.59440000  0.41470000  0.16810000  1.0
  H  H38  1  0.65260000  0.42480000  0.26670000  1.0
  H  H39  1  0.66420000  0.62860000  0.33890000  1.0
  H  H40  1  0.90140000  0.40250000  0.35180000  1.0
  H  H41  1  0.08490000  0.03970000  0.88920000  1.0
  H  H42  1  0.31080000  0.06590000  0.48480000  1.0
  H  H43  1  0.00130000  0.38420000  0.54880000  1.0
  H  H44  1  0.88470000  0.80950000  0.84890000  1.0
  H  H45  1  0.26340000  0.13310000  0.53580000  1.0
  H  H46  1  0.24530000  0.08040000  0.03810000  1.0
  H  H47  1  0.00160000  0.33620000  0.39570000  1.0
  H  H48  1  0.97510000  0.83760000  0.04540000  1.0
  H  H49  1  0.29370000  0.14650000  0.98860000  1.0
  H  H50  1  0.98090000  0.88330000  0.89300000  1.0
  H  H51  1  0.27580000  0.18950000  0.65980000  1.0
  H  H52  1  0.13820000  0.10980000  0.84440000  1.0
  H  H53  1  0.32020000  0.17380000  0.75860000  1.0
  H  H54  1  0.87770000  0.76710000  0.99490000  1.0
  H  H55  1  0.11400000  0.29180000  0.66540000  1.0
  H  H56  1  0.11580000  0.20390000  0.38590000  1.0
  H  H57  1  0.16330000  0.27400000  0.76290000  1.0
  H  H58  1  0.22900000  0.06670000  0.15550000  1.0
  H  H59  1  0.90190000  0.45360000  0.50020000  1.0
  H  H60  1  0.27760000  0.07820000  0.25400000  1.0
  H  H61  1  0.09440000  0.91470000  0.16810000  1.0
  H  H62  1  0.15260000  0.92480000  0.26670000  1.0
  H  H63  1  0.16420000  0.12860000  0.33890000  1.0
  H  H64  1  0.59860000  0.90250000  0.14820000  1.0
  H  H65  1  0.41510000  0.53970000  0.61080000  1.0
  H  H66  1  0.18920000  0.56590000  0.01520000  1.0
  H  H67  1  0.49870000  0.88420000  0.95120000  1.0
  H  H68  1  0.61530000  0.30950000  0.65110000  1.0
  H  H69  1  0.23660000  0.63310000  0.96420000  1.0
  H  H70  1  0.25470000  0.58040000  0.46190000  1.0
  H  H71  1  0.49840000  0.83620000  0.10430000  1.0
  H  H72  1  0.52490000  0.33760000  0.45460000  1.0
  H  H73  1  0.20630000  0.64650000  0.51140000  1.0
  H  H74  1  0.51910000  0.38330000  0.60700000  1.0
  H  H75  1  0.22420000  0.68950000  0.84020000  1.0
  H  H76  1  0.36180000  0.60980000  0.65560000  1.0
  H  H77  1  0.17980000  0.67380000  0.74140000  1.0
  H  H78  1  0.62230000  0.26710000  0.50510000  1.0
  H  H79  1  0.38600000  0.79180000  0.83460000  1.0
  H  H80  1  0.38420000  0.70390000  0.11410000  1.0
  H  H81  1  0.33670000  0.77400000  0.73710000  1.0
  H  H82  1  0.27100000  0.56670000  0.34450000  1.0
  H  H83  1  0.59810000  0.95360000  0.99980000  1.0
  H  H84  1  0.22240000  0.57820000  0.24600000  1.0
  H  H85  1  0.40560000  0.41470000  0.33190000  1.0
  H  H86  1  0.34740000  0.42480000  0.23330000  1.0
  H  H87  1  0.33580000  0.62860000  0.16110000  1.0
  H  H88  1  0.09860000  0.40250000  0.14820000  1.0
  H  H89  1  0.91510000  0.03970000  0.61080000  1.0
  H  H90  1  0.68920000  0.06590000  0.01520000  1.0
  H  H91  1  0.99870000  0.38420000  0.95120000  1.0
  H  H92  1  0.11530000  0.80950000  0.65110000  1.0
  H  H93  1  0.73660000  0.13310000  0.96420000  1.0
  H  H94  1  0.75470000  0.08040000  0.46190000  1.0
  H  H95  1  0.99840000  0.33620000  0.10430000  1.0
  H  H96  1  0.02490000  0.83760000  0.45460000  1.0
  H  H97  1  0.70630000  0.14650000  0.51140000  1.0
  H  H98  1  0.01910000  0.88330000  0.60700000  1.0
  H  H99  1  0.72420000  0.18950000  0.84020000  1.0
  H  H100  1  0.86180000  0.10980000  0.65560000  1.0
  H  H101  1  0.67980000  0.17380000  0.74140000  1.0
  H  H102  1  0.12230000  0.76710000  0.50510000  1.0
  H  H103  1  0.88600000  0.29180000  0.83460000  1.0
  H  H104  1  0.88420000  0.20390000  0.11410000  1.0
  H  H105  1  0.83670000  0.27400000  0.73710000  1.0
  H  H106  1  0.77100000  0.06670000  0.34450000  1.0
  H  H107  1  0.09810000  0.45360000  0.99980000  1.0
  H  H108  1  0.72240000  0.07820000  0.24600000  1.0
  H  H109  1  0.90560000  0.91470000  0.33190000  1.0
  H  H110  1  0.84740000  0.92480000  0.23330000  1.0
  H  H111  1  0.83580000  0.12860000  0.16110000  1.0
  H  H112  1  0.59860000  0.09750000  0.64820000  1.0
  H  H113  1  0.41510000  0.46030000  0.11080000  1.0
  H  H114  1  0.18920000  0.43410000  0.51520000  1.0
  H  H115  1  0.49870000  0.11580000  0.45120000  1.0
  H  H116  1  0.61530000  0.69050000  0.15110000  1.0
  H  H117  1  0.23660000  0.36690000  0.46420000  1.0
  H  H118  1  0.25470000  0.41960000  0.96190000  1.0
  H  H119  1  0.49840000  0.16380000  0.60430000  1.0
  H  H120  1  0.52490000  0.66240000  0.95460000  1.0
  H  H121  1  0.20630000  0.35350000  0.01140000  1.0
  H  H122  1  0.51910000  0.61670000  0.10700000  1.0
  H  H123  1  0.22420000  0.31050000  0.34020000  1.0
  H  H124  1  0.36180000  0.39020000  0.15560000  1.0
  H  H125  1  0.17980000  0.32620000  0.24140000  1.0
  H  H126  1  0.62230000  0.73290000  0.00510000  1.0
  H  H127  1  0.38600000  0.20820000  0.33460000  1.0
  H  H128  1  0.38420000  0.29610000  0.61410000  1.0
  H  H129  1  0.33670000  0.22600000  0.23710000  1.0
  H  H130  1  0.27100000  0.43330000  0.84450000  1.0
  H  H131  1  0.59810000  0.04640000  0.49980000  1.0
  H  H132  1  0.22240000  0.42180000  0.74600000  1.0
  H  H133  1  0.40560000  0.58530000  0.83190000  1.0
  H  H134  1  0.34740000  0.57520000  0.73330000  1.0
  H  H135  1  0.33580000  0.37140000  0.66110000  1.0
  H  H136  1  0.09860000  0.59750000  0.64820000  1.0
  H  H137  1  0.91510000  0.96030000  0.11080000  1.0
  H  H138  1  0.68920000  0.93410000  0.51520000  1.0
  H  H139  1  0.99870000  0.61580000  0.45120000  1.0
  H  H140  1  0.11530000  0.19050000  0.15110000  1.0
  H  H141  1  0.73660000  0.86690000  0.46420000  1.0
  H  H142  1  0.75470000  0.91960000  0.96190000  1.0
  H  H143  1  0.99840000  0.66380000  0.60430000  1.0
  H  H144  1  0.02490000  0.16240000  0.95460000  1.0
  H  H145  1  0.70630000  0.85350000  0.01140000  1.0
  H  H146  1  0.01910000  0.11670000  0.10700000  1.0
  H  H147  1  0.72420000  0.81050000  0.34020000  1.0
  H  H148  1  0.86180000  0.89020000  0.15560000  1.0
  H  H149  1  0.67980000  0.82620000  0.24140000  1.0
  H  H150  1  0.12230000  0.23290000  0.00510000  1.0
  H  H151  1  0.88600000  0.70820000  0.33460000  1.0
  H  H152  1  0.88420000  0.79610000  0.61410000  1.0
  H  H153  1  0.83670000  0.72600000  0.23710000  1.0
  H  H154  1  0.77100000  0.93330000  0.84450000  1.0
  H  H155  1  0.09810000  0.54640000  0.49980000  1.0
  H  H156  1  0.72240000  0.92180000  0.74600000  1.0
  H  H157  1  0.90560000  0.08530000  0.83190000  1.0
  H  H158  1  0.84740000  0.07520000  0.73330000  1.0
  H  H159  1  0.83580000  0.87140000  0.66110000  1.0
  H  H160  1  0.40140000  0.09750000  0.85180000  1.0
  H  H161  1  0.58490000  0.46030000  0.38920000  1.0
  H  H162  1  0.81080000  0.43410000  0.98480000  1.0
  H  H163  1  0.50130000  0.11580000  0.04880000  1.0
  H  H164  1  0.38470000  0.69050000  0.34890000  1.0
  H  H165  1  0.76340000  0.36690000  0.03580000  1.0
  H  H166  1  0.74530000  0.41960000  0.53810000  1.0
  H  H167  1  0.50160000  0.16380000  0.89570000  1.0
  H  H168  1  0.47510000  0.66240000  0.54540000  1.0
  H  H169  1  0.79370000  0.35350000  0.48860000  1.0
  H  H170  1  0.48090000  0.61670000  0.39300000  1.0
  H  H171  1  0.77580000  0.31050000  0.15980000  1.0
  H  H172  1  0.63820000  0.39020000  0.34440000  1.0
  H  H173  1  0.82020000  0.32620000  0.25860000  1.0
  H  H174  1  0.37770000  0.73290000  0.49490000  1.0
  H  H175  1  0.61400000  0.20820000  0.16540000  1.0
  H  H176  1  0.61580000  0.29610000  0.88590000  1.0
  H  H177  1  0.66330000  0.22600000  0.26290000  1.0
  H  H178  1  0.72900000  0.43330000  0.65550000  1.0
  H  H179  1  0.40190000  0.04640000  0.00020000  1.0
  H  H180  1  0.77760000  0.42180000  0.75400000  1.0
  H  H181  1  0.59440000  0.58530000  0.66810000  1.0
  H  H182  1  0.65260000  0.57520000  0.76670000  1.0
  H  H183  1  0.66420000  0.37140000  0.83890000  1.0
  H  H184  1  0.90140000  0.59750000  0.85180000  1.0
  H  H185  1  0.08490000  0.96030000  0.38920000  1.0
  H  H186  1  0.31080000  0.93410000  0.98480000  1.0
  H  H187  1  0.00130000  0.61580000  0.04880000  1.0
  H  H188  1  0.88470000  0.19050000  0.34890000  1.0
  H  H189  1  0.26340000  0.86690000  0.03580000  1.0
  H  H190  1  0.24530000  0.91960000  0.53810000  1.0
  H  H191  1  0.00160000  0.66380000  0.89570000  1.0
  H  H192  1  0.97510000  0.16240000  0.54540000  1.0
  H  H193  1  0.29370000  0.85350000  0.48860000  1.0
  H  H194  1  0.98090000  0.11670000  0.39300000  1.0
  H  H195  1  0.27580000  0.81050000  0.15980000  1.0
  H  H196  1  0.13820000  0.89020000  0.34440000  1.0
  H  H197  1  0.32020000  0.82620000  0.25860000  1.0
  H  H198  1  0.87770000  0.23290000  0.49490000  1.0
  H  H199  1  0.11400000  0.70820000  0.16540000  1.0
  H  H200  1  0.11580000  0.79610000  0.88590000  1.0
  H  H201  1  0.16330000  0.72600000  0.26290000  1.0
  H  H202  1  0.22900000  0.93330000  0.65550000  1.0
  H  H203  1  0.90190000  0.54640000  0.00020000  1.0
  H  H204  1  0.27760000  0.92180000  0.75400000  1.0
  H  H205  1  0.09440000  0.08530000  0.66810000  1.0
  H  H206  1  0.15260000  0.07520000  0.76670000  1.0
  H  H207  1  0.16420000  0.87140000  0.83890000  1.0
  C  C208  1  0.65310000  0.71980000  0.50030000  1.0
  C  C209  1  0.42220000  0.89950000  0.39190000  1.0
  C  C210  1  0.62760000  0.56110000  0.91060000  1.0
  C  C211  1  0.62750000  0.50670000  0.00170000  1.0
  C  C212  1  0.57460000  0.80160000  0.50600000  1.0
  C  C213  1  0.77070000  0.59350000  0.46460000  1.0
  C  C214  1  0.48190000  0.88730000  0.50870000  1.0
  C  C215  1  0.40290000  0.31590000  0.88880000  1.0
  C  C216  1  0.74280000  0.63390000  0.49560000  1.0
  C  C217  1  0.65890000  0.55150000  0.96900000  1.0
  C  C218  1  0.72240000  0.58510000  0.99820000  1.0
  C  C219  1  0.68360000  0.67590000  0.46630000  1.0
  C  C220  1  0.62690000  0.47530000  0.08720000  1.0
  C  C221  1  0.65810000  0.48580000  0.15050000  1.0
  C  C222  1  0.48190000  0.85840000  0.41800000  1.0
  C  C223  1  0.54960000  0.42250000  0.00460000  1.0
  C  C224  1  0.68990000  0.74200000  0.65150000  1.0
  C  C225  1  0.45720000  0.33410000  0.00530000  1.0
  C  C226  1  0.75100000  0.62480000  0.96810000  1.0
  C  C227  1  0.46070000  0.36090000  0.91490000  1.0
  C  C228  1  0.75180000  0.70710000  0.68000000  1.0
  C  C229  1  0.66050000  0.60300000  0.88420000  1.0
  C  C230  1  0.77830000  0.69820000  0.73960000  1.0
  C  C231  1  0.39900000  0.29090000  0.97430000  1.0
  C  C232  1  0.65610000  0.76770000  0.68330000  1.0
  C  C233  1  0.65830000  0.75150000  0.58720000  1.0
  C  C234  1  0.51240000  0.85000000  0.47690000  1.0
  C  C235  1  0.65500000  0.67510000  0.40700000  1.0
  C  C236  1  0.68640000  0.75670000  0.74190000  1.0
  C  C237  1  0.71240000  0.53700000  0.17730000  1.0
  C  C238  1  0.48850000  0.37250000  0.97450000  1.0
  C  C239  1  0.42210000  0.92910000  0.47900000  1.0
  C  C240  1  0.74150000  0.54330000  0.23660000  1.0
  C  C241  1  0.63300000  0.44600000  0.18440000  1.0
  C  C242  1  0.66770000  0.45460000  0.24380000  1.0
  C  C243  1  0.68530000  0.63100000  0.37900000  1.0
  C  C244  1  0.15310000  0.21980000  0.50030000  1.0
  C  C245  1  0.92220000  0.39950000  0.39190000  1.0
  C  C246  1  0.12760000  0.06110000  0.91060000  1.0
  C  C247  1  0.12750000  0.00670000  0.00170000  1.0
  C  C248  1  0.07460000  0.30160000  0.50600000  1.0
  C  C249  1  0.27070000  0.09350000  0.46460000  1.0
  C  C250  1  0.98190000  0.38730000  0.50870000  1.0
  C  C251  1  0.90290000  0.81590000  0.88880000  1.0
  C  C252  1  0.24280000  0.13390000  0.49560000  1.0
  C  C253  1  0.15890000  0.05150000  0.96900000  1.0
  C  C254  1  0.22240000  0.08510000  0.99820000  1.0
  C  C255  1  0.18360000  0.17590000  0.46630000  1.0
  C  C256  1  0.12690000  0.97530000  0.08720000  1.0
  C  C257  1  0.15810000  0.98580000  0.15050000  1.0
  C  C258  1  0.98190000  0.35840000  0.41800000  1.0
  C  C259  1  0.04960000  0.92250000  0.00460000  1.0
  C  C260  1  0.18990000  0.24200000  0.65150000  1.0
  C  C261  1  0.95720000  0.83410000  0.00530000  1.0
  C  C262  1  0.25100000  0.12480000  0.96810000  1.0
  C  C263  1  0.96070000  0.86090000  0.91490000  1.0
  C  C264  1  0.25180000  0.20710000  0.68000000  1.0
  C  C265  1  0.16050000  0.10300000  0.88420000  1.0
  C  C266  1  0.27830000  0.19820000  0.73960000  1.0
  C  C267  1  0.89900000  0.79090000  0.97430000  1.0
  C  C268  1  0.15610000  0.26770000  0.68330000  1.0
  C  C269  1  0.15830000  0.25150000  0.58720000  1.0
  C  C270  1  0.01240000  0.35000000  0.47690000  1.0
  C  C271  1  0.15500000  0.17510000  0.40700000  1.0
  C  C272  1  0.18640000  0.25670000  0.74190000  1.0
  C  C273  1  0.21240000  0.03700000  0.17730000  1.0
  C  C274  1  0.98850000  0.87250000  0.97450000  1.0
  C  C275  1  0.92210000  0.42910000  0.47900000  1.0
  C  C276  1  0.24150000  0.04330000  0.23660000  1.0
  C  C277  1  0.13300000  0.94600000  0.18440000  1.0
  C  C278  1  0.16770000  0.95460000  0.24380000  1.0
  C  C279  1  0.18530000  0.13100000  0.37900000  1.0
  C  C280  1  0.34690000  0.71980000  0.99970000  1.0
  C  C281  1  0.57780000  0.89950000  0.10810000  1.0
  C  C282  1  0.37240000  0.56110000  0.58940000  1.0
  C  C283  1  0.37250000  0.50670000  0.49830000  1.0
  C  C284  1  0.42540000  0.80160000  0.99400000  1.0
  C  C285  1  0.22930000  0.59350000  0.03540000  1.0
  C  C286  1  0.51810000  0.88730000  0.99130000  1.0
  C  C287  1  0.59710000  0.31590000  0.61120000  1.0
  C  C288  1  0.25720000  0.63390000  0.00440000  1.0
  C  C289  1  0.34110000  0.55150000  0.53100000  1.0
  C  C290  1  0.27760000  0.58510000  0.50180000  1.0
  C  C291  1  0.31640000  0.67590000  0.03370000  1.0
  C  C292  1  0.37310000  0.47530000  0.41280000  1.0
  C  C293  1  0.34190000  0.48580000  0.34950000  1.0
  C  C294  1  0.51810000  0.85840000  0.08200000  1.0
  C  C295  1  0.45040000  0.42250000  0.49540000  1.0
  C  C296  1  0.31010000  0.74200000  0.84850000  1.0
  C  C297  1  0.54280000  0.33410000  0.49470000  1.0
  C  C298  1  0.24900000  0.62480000  0.53190000  1.0
  C  C299  1  0.53930000  0.36090000  0.58510000  1.0
  C  C300  1  0.24820000  0.70710000  0.82000000  1.0
  C  C301  1  0.33950000  0.60300000  0.61580000  1.0
  C  C302  1  0.22170000  0.69820000  0.76040000  1.0
  C  C303  1  0.60100000  0.29090000  0.52570000  1.0
  C  C304  1  0.34390000  0.76770000  0.81670000  1.0
  C  C305  1  0.34170000  0.75150000  0.91280000  1.0
  C  C306  1  0.48760000  0.85000000  0.02310000  1.0
  C  C307  1  0.34500000  0.67510000  0.09300000  1.0
  C  C308  1  0.31360000  0.75670000  0.75810000  1.0
  C  C309  1  0.28760000  0.53700000  0.32270000  1.0
  C  C310  1  0.51150000  0.37250000  0.52550000  1.0
  C  C311  1  0.57790000  0.92910000  0.02100000  1.0
  C  C312  1  0.25850000  0.54330000  0.26340000  1.0
  C  C313  1  0.36700000  0.44600000  0.31560000  1.0
  C  C314  1  0.33230000  0.45460000  0.25620000  1.0
  C  C315  1  0.31470000  0.63100000  0.12100000  1.0
  C  C316  1  0.84690000  0.21980000  0.99970000  1.0
  C  C317  1  0.07780000  0.39950000  0.10810000  1.0
  C  C318  1  0.87240000  0.06110000  0.58940000  1.0
  C  C319  1  0.87250000  0.00670000  0.49830000  1.0
  C  C320  1  0.92540000  0.30160000  0.99400000  1.0
  C  C321  1  0.72930000  0.09350000  0.03540000  1.0
  C  C322  1  0.01810000  0.38730000  0.99130000  1.0
  C  C323  1  0.09710000  0.81590000  0.61120000  1.0
  C  C324  1  0.75720000  0.13390000  0.00440000  1.0
  C  C325  1  0.84110000  0.05150000  0.53100000  1.0
  C  C326  1  0.77760000  0.08510000  0.50180000  1.0
  C  C327  1  0.81640000  0.17590000  0.03370000  1.0
  C  C328  1  0.87310000  0.97530000  0.41280000  1.0
  C  C329  1  0.84190000  0.98580000  0.34950000  1.0
  C  C330  1  0.01810000  0.35840000  0.08200000  1.0
  C  C331  1  0.95040000  0.92250000  0.49540000  1.0
  C  C332  1  0.81010000  0.24200000  0.84850000  1.0
  C  C333  1  0.04280000  0.83410000  0.49470000  1.0
  C  C334  1  0.74900000  0.12480000  0.53190000  1.0
  C  C335  1  0.03930000  0.86090000  0.58510000  1.0
  C  C336  1  0.74820000  0.20710000  0.82000000  1.0
  C  C337  1  0.83950000  0.10300000  0.61580000  1.0
  C  C338  1  0.72170000  0.19820000  0.76040000  1.0
  C  C339  1  0.10100000  0.79090000  0.52570000  1.0
  C  C340  1  0.84390000  0.26770000  0.81670000  1.0
  C  C341  1  0.84170000  0.25150000  0.91280000  1.0
  C  C342  1  0.98760000  0.35000000  0.02310000  1.0
  C  C343  1  0.84500000  0.17510000  0.09300000  1.0
  C  C344  1  0.81360000  0.25670000  0.75810000  1.0
  C  C345  1  0.78760000  0.03700000  0.32270000  1.0
  C  C346  1  0.01150000  0.87250000  0.52550000  1.0
  C  C347  1  0.07790000  0.42910000  0.02100000  1.0
  C  C348  1  0.75850000  0.04330000  0.26340000  1.0
  C  C349  1  0.86700000  0.94600000  0.31560000  1.0
  C  C350  1  0.83230000  0.95460000  0.25620000  1.0
  C  C351  1  0.81470000  0.13100000  0.12100000  1.0
  C  C352  1  0.34690000  0.28020000  0.49970000  1.0
  C  C353  1  0.57780000  0.10050000  0.60810000  1.0
  C  C354  1  0.37240000  0.43890000  0.08940000  1.0
  C  C355  1  0.37250000  0.49330000  0.99830000  1.0
  C  C356  1  0.42540000  0.19840000  0.49400000  1.0
  C  C357  1  0.22930000  0.40650000  0.53540000  1.0
  C  C358  1  0.51810000  0.11270000  0.49130000  1.0
  C  C359  1  0.59710000  0.68410000  0.11120000  1.0
  C  C360  1  0.25720000  0.36610000  0.50440000  1.0
  C  C361  1  0.34110000  0.44850000  0.03100000  1.0
  C  C362  1  0.27760000  0.41490000  0.00180000  1.0
  C  C363  1  0.31640000  0.32410000  0.53370000  1.0
  C  C364  1  0.37310000  0.52470000  0.91280000  1.0
  C  C365  1  0.34190000  0.51420000  0.84950000  1.0
  C  C366  1  0.51810000  0.14160000  0.58200000  1.0
  C  C367  1  0.45040000  0.57750000  0.99540000  1.0
  C  C368  1  0.31010000  0.25800000  0.34850000  1.0
  C  C369  1  0.54280000  0.66590000  0.99470000  1.0
  C  C370  1  0.24900000  0.37520000  0.03190000  1.0
  C  C371  1  0.53930000  0.63910000  0.08510000  1.0
  C  C372  1  0.24820000  0.29290000  0.32000000  1.0
  C  C373  1  0.33950000  0.39700000  0.11580000  1.0
  C  C374  1  0.22170000  0.30180000  0.26040000  1.0
  C  C375  1  0.60100000  0.70910000  0.02570000  1.0
  C  C376  1  0.34390000  0.23230000  0.31670000  1.0
  C  C377  1  0.34170000  0.24850000  0.41280000  1.0
  C  C378  1  0.48760000  0.15000000  0.52310000  1.0
  C  C379  1  0.34500000  0.32490000  0.59300000  1.0
  C  C380  1  0.31360000  0.24330000  0.25810000  1.0
  C  C381  1  0.28760000  0.46300000  0.82270000  1.0
  C  C382  1  0.51150000  0.62750000  0.02550000  1.0
  C  C383  1  0.57790000  0.07090000  0.52100000  1.0
  C  C384  1  0.25850000  0.45670000  0.76340000  1.0
  C  C385  1  0.36700000  0.55400000  0.81560000  1.0
  C  C386  1  0.33230000  0.54540000  0.75620000  1.0
  C  C387  1  0.31470000  0.36900000  0.62100000  1.0
  C  C388  1  0.84690000  0.78020000  0.49970000  1.0
  C  C389  1  0.07780000  0.60050000  0.60810000  1.0
  C  C390  1  0.87240000  0.93890000  0.08940000  1.0
  C  C391  1  0.87250000  0.99330000  0.99830000  1.0
  C  C392  1  0.92540000  0.69840000  0.49400000  1.0
  C  C393  1  0.72930000  0.90650000  0.53540000  1.0
  C  C394  1  0.01810000  0.61270000  0.49130000  1.0
  C  C395  1  0.09710000  0.18410000  0.11120000  1.0
  C  C396  1  0.75720000  0.86610000  0.50440000  1.0
  C  C397  1  0.84110000  0.94850000  0.03100000  1.0
  C  C398  1  0.77760000  0.91490000  0.00180000  1.0
  C  C399  1  0.81640000  0.82410000  0.53370000  1.0
  C  C400  1  0.87310000  0.02470000  0.91280000  1.0
  C  C401  1  0.84190000  0.01420000  0.84950000  1.0
  C  C402  1  0.01810000  0.64160000  0.58200000  1.0
  C  C403  1  0.95040000  0.07750000  0.99540000  1.0
  C  C404  1  0.81010000  0.75800000  0.34850000  1.0
  C  C405  1  0.04280000  0.16590000  0.99470000  1.0
  C  C406  1  0.74900000  0.87520000  0.03190000  1.0
  C  C407  1  0.03930000  0.13910000  0.08510000  1.0
  C  C408  1  0.74820000  0.79290000  0.32000000  1.0
  C  C409  1  0.83950000  0.89700000  0.11580000  1.0
  C  C410  1  0.72170000  0.80180000  0.26040000  1.0
  C  C411  1  0.10100000  0.20910000  0.02570000  1.0
  C  C412  1  0.84390000  0.73230000  0.31670000  1.0
  C  C413  1  0.84170000  0.74850000  0.41280000  1.0
  C  C414  1  0.98760000  0.65000000  0.52310000  1.0
  C  C415  1  0.84500000  0.82490000  0.59300000  1.0
  C  C416  1  0.81360000  0.74330000  0.25810000  1.0
  C  C417  1  0.78760000  0.96300000  0.82270000  1.0
  C  C418  1  0.01150000  0.12750000  0.02550000  1.0
  C  C419  1  0.07790000  0.57090000  0.52100000  1.0
  C  C420  1  0.75850000  0.95670000  0.76340000  1.0
  C  C421  1  0.86700000  0.05400000  0.81560000  1.0
  C  C422  1  0.83230000  0.04540000  0.75620000  1.0
  C  C423  1  0.81470000  0.86900000  0.62100000  1.0
  C  C424  1  0.65310000  0.28020000  0.00030000  1.0
  C  C425  1  0.42220000  0.10050000  0.89190000  1.0
  C  C426  1  0.62760000  0.43890000  0.41060000  1.0
  C  C427  1  0.62750000  0.49330000  0.50170000  1.0
  C  C428  1  0.57460000  0.19840000  0.00600000  1.0
  C  C429  1  0.77070000  0.40650000  0.96460000  1.0
  C  C430  1  0.48190000  0.11270000  0.00870000  1.0
  C  C431  1  0.40290000  0.68410000  0.38880000  1.0
  C  C432  1  0.74280000  0.36610000  0.99560000  1.0
  C  C433  1  0.65890000  0.44850000  0.46900000  1.0
  C  C434  1  0.72240000  0.41490000  0.49820000  1.0
  C  C435  1  0.68360000  0.32410000  0.96630000  1.0
  C  C436  1  0.62690000  0.52470000  0.58720000  1.0
  C  C437  1  0.65810000  0.51420000  0.65050000  1.0
  C  C438  1  0.48190000  0.14160000  0.91800000  1.0
  C  C439  1  0.54960000  0.57750000  0.50460000  1.0
  C  C440  1  0.68990000  0.25800000  0.15150000  1.0
  C  C441  1  0.45720000  0.66590000  0.50530000  1.0
  C  C442  1  0.75100000  0.37520000  0.46810000  1.0
  C  C443  1  0.46070000  0.63910000  0.41490000  1.0
  C  C444  1  0.75180000  0.29290000  0.18000000  1.0
  C  C445  1  0.66050000  0.39700000  0.38420000  1.0
  C  C446  1  0.77830000  0.30180000  0.23960000  1.0
  C  C447  1  0.39900000  0.70910000  0.47430000  1.0
  C  C448  1  0.65610000  0.23230000  0.18330000  1.0
  C  C449  1  0.65830000  0.24850000  0.08720000  1.0
  C  C450  1  0.51240000  0.15000000  0.97690000  1.0
  C  C451  1  0.65500000  0.32490000  0.90700000  1.0
  C  C452  1  0.68640000  0.24330000  0.24190000  1.0
  C  C453  1  0.71240000  0.46300000  0.67730000  1.0
  C  C454  1  0.48850000  0.62750000  0.47450000  1.0
  C  C455  1  0.42210000  0.07090000  0.97900000  1.0
  C  C456  1  0.74150000  0.45670000  0.73660000  1.0
  C  C457  1  0.63300000  0.55400000  0.68440000  1.0
  C  C458  1  0.66770000  0.54540000  0.74380000  1.0
  C  C459  1  0.68530000  0.36900000  0.87900000  1.0
  C  C460  1  0.15310000  0.78020000  0.00030000  1.0
  C  C461  1  0.92220000  0.60050000  0.89190000  1.0
  C  C462  1  0.12760000  0.93890000  0.41060000  1.0
  C  C463  1  0.12750000  0.99330000  0.50170000  1.0
  C  C464  1  0.07460000  0.69840000  0.00600000  1.0
  C  C465  1  0.27070000  0.90650000  0.96460000  1.0
  C  C466  1  0.98190000  0.61270000  0.00870000  1.0
  C  C467  1  0.90290000  0.18410000  0.38880000  1.0
  C  C468  1  0.24280000  0.86610000  0.99560000  1.0
  C  C469  1  0.15890000  0.94850000  0.46900000  1.0
  C  C470  1  0.22240000  0.91490000  0.49820000  1.0
  C  C471  1  0.18360000  0.82410000  0.96630000  1.0
  C  C472  1  0.12690000  0.02470000  0.58720000  1.0
  C  C473  1  0.15810000  0.01420000  0.65050000  1.0
  C  C474  1  0.98190000  0.64160000  0.91800000  1.0
  C  C475  1  0.04960000  0.07750000  0.50460000  1.0
  C  C476  1  0.18990000  0.75800000  0.15150000  1.0
  C  C477  1  0.95720000  0.16590000  0.50530000  1.0
  C  C478  1  0.25100000  0.87520000  0.46810000  1.0
  C  C479  1  0.96070000  0.13910000  0.41490000  1.0
  C  C480  1  0.25180000  0.79290000  0.18000000  1.0
  C  C481  1  0.16050000  0.89700000  0.38420000  1.0
  C  C482  1  0.27830000  0.80180000  0.23960000  1.0
  C  C483  1  0.89900000  0.20910000  0.47430000  1.0
  C  C484  1  0.15610000  0.73230000  0.18330000  1.0
  C  C485  1  0.15830000  0.74850000  0.08720000  1.0
  C  C486  1  0.01240000  0.65000000  0.97690000  1.0
  C  C487  1  0.15500000  0.82490000  0.90700000  1.0
  C  C488  1  0.18640000  0.74330000  0.24190000  1.0
  C  C489  1  0.21240000  0.96300000  0.67730000  1.0
  C  C490  1  0.98850000  0.12750000  0.47450000  1.0
  C  C491  1  0.92210000  0.57090000  0.97900000  1.0
  C  C492  1  0.24150000  0.95670000  0.73660000  1.0
  C  C493  1  0.13300000  0.05400000  0.68440000  1.0
  C  C494  1  0.16770000  0.04540000  0.74380000  1.0
  C  C495  1  0.18530000  0.86900000  0.87900000  1.0
  N  N496  1  0.37150000  0.28090000  0.91750000  1.0
  N  N497  1  0.72160000  0.63450000  0.91110000  1.0
  N  N498  1  0.72030000  0.50140000  0.27060000  1.0
  N  N499  1  0.57390000  0.46100000  0.97210000  1.0
  N  N500  1  0.65570000  0.51710000  0.05830000  1.0
  N  N501  1  0.57490000  0.42720000  0.06260000  1.0
  N  N502  1  0.74360000  0.59140000  0.40680000  1.0
  N  N503  1  0.74630000  0.72320000  0.77100000  1.0
  N  N504  1  0.39220000  0.93580000  0.42200000  1.0
  N  N505  1  0.59730000  0.76110000  0.47290000  1.0
  N  N506  1  0.68580000  0.71290000  0.55830000  1.0
  N  N507  1  0.60350000  0.79880000  0.56390000  1.0
  N  N508  1  0.87150000  0.78090000  0.91750000  1.0
  N  N509  1  0.22160000  0.13450000  0.91110000  1.0
  N  N510  1  0.22030000  0.00140000  0.27060000  1.0
  N  N511  1  0.07390000  0.96100000  0.97210000  1.0
  N  N512  1  0.15570000  0.01710000  0.05830000  1.0
  N  N513  1  0.07490000  0.92720000  0.06260000  1.0
  N  N514  1  0.24360000  0.09140000  0.40680000  1.0
  N  N515  1  0.24630000  0.22320000  0.77100000  1.0
  N  N516  1  0.89220000  0.43580000  0.42200000  1.0
  N  N517  1  0.09730000  0.26110000  0.47290000  1.0
  N  N518  1  0.18580000  0.21290000  0.55830000  1.0
  N  N519  1  0.10350000  0.29880000  0.56390000  1.0
  N  N520  1  0.62850000  0.28090000  0.58250000  1.0
  N  N521  1  0.27840000  0.63450000  0.58890000  1.0
  N  N522  1  0.27970000  0.50140000  0.22940000  1.0
  N  N523  1  0.42610000  0.46100000  0.52790000  1.0
  N  N524  1  0.34430000  0.51710000  0.44170000  1.0
  N  N525  1  0.42510000  0.42720000  0.43740000  1.0
  N  N526  1  0.25640000  0.59140000  0.09320000  1.0
  N  N527  1  0.25370000  0.72320000  0.72900000  1.0
  N  N528  1  0.60780000  0.93580000  0.07800000  1.0
  N  N529  1  0.40270000  0.76110000  0.02710000  1.0
  N  N530  1  0.31420000  0.71290000  0.94170000  1.0
  N  N531  1  0.39650000  0.79880000  0.93610000  1.0
  N  N532  1  0.12850000  0.78090000  0.58250000  1.0
  N  N533  1  0.77840000  0.13450000  0.58890000  1.0
  N  N534  1  0.77970000  0.00140000  0.22940000  1.0
  N  N535  1  0.92610000  0.96100000  0.52790000  1.0
  N  N536  1  0.84430000  0.01710000  0.44170000  1.0
  N  N537  1  0.92510000  0.92720000  0.43740000  1.0
  N  N538  1  0.75640000  0.09140000  0.09320000  1.0
  N  N539  1  0.75370000  0.22320000  0.72900000  1.0
  N  N540  1  0.10780000  0.43580000  0.07800000  1.0
  N  N541  1  0.90270000  0.26110000  0.02710000  1.0
  N  N542  1  0.81420000  0.21290000  0.94170000  1.0
  N  N543  1  0.89650000  0.29880000  0.93610000  1.0
  N  N544  1  0.62850000  0.71910000  0.08250000  1.0
  N  N545  1  0.27840000  0.36550000  0.08890000  1.0
  N  N546  1  0.27970000  0.49860000  0.72940000  1.0
  N  N547  1  0.42610000  0.53900000  0.02790000  1.0
  N  N548  1  0.34430000  0.48290000  0.94170000  1.0
  N  N549  1  0.42510000  0.57280000  0.93740000  1.0
  N  N550  1  0.25640000  0.40860000  0.59320000  1.0
  N  N551  1  0.25370000  0.27680000  0.22900000  1.0
  N  N552  1  0.60780000  0.06420000  0.57800000  1.0
  N  N553  1  0.40270000  0.23890000  0.52710000  1.0
  N  N554  1  0.31420000  0.28710000  0.44170000  1.0
  N  N555  1  0.39650000  0.20120000  0.43610000  1.0
  N  N556  1  0.12850000  0.21910000  0.08250000  1.0
  N  N557  1  0.77840000  0.86550000  0.08890000  1.0
  N  N558  1  0.77970000  0.99860000  0.72940000  1.0
  N  N559  1  0.92610000  0.03900000  0.02790000  1.0
  N  N560  1  0.84430000  0.98290000  0.94170000  1.0
  N  N561  1  0.92510000  0.07280000  0.93740000  1.0
  N  N562  1  0.75640000  0.90860000  0.59320000  1.0
  N  N563  1  0.75370000  0.77680000  0.22900000  1.0
  N  N564  1  0.10780000  0.56420000  0.57800000  1.0
  N  N565  1  0.90270000  0.73890000  0.52710000  1.0
  N  N566  1  0.81420000  0.78710000  0.44170000  1.0
  N  N567  1  0.89650000  0.70120000  0.43610000  1.0
  N  N568  1  0.37150000  0.71910000  0.41750000  1.0
  N  N569  1  0.72160000  0.36550000  0.41110000  1.0
  N  N570  1  0.72030000  0.49860000  0.77060000  1.0
  N  N571  1  0.57390000  0.53900000  0.47210000  1.0
  N  N572  1  0.65570000  0.48290000  0.55830000  1.0
  N  N573  1  0.57490000  0.57280000  0.56260000  1.0
  N  N574  1  0.74360000  0.40860000  0.90680000  1.0
  N  N575  1  0.74630000  0.27680000  0.27100000  1.0
  N  N576  1  0.39220000  0.06420000  0.92200000  1.0
  N  N577  1  0.59730000  0.23890000  0.97290000  1.0
  N  N578  1  0.68580000  0.28710000  0.05830000  1.0
  N  N579  1  0.60350000  0.20120000  0.06390000  1.0
  N  N580  1  0.87150000  0.21910000  0.41750000  1.0
  N  N581  1  0.22160000  0.86550000  0.41110000  1.0
  N  N582  1  0.22030000  0.99860000  0.77060000  1.0
  N  N583  1  0.07390000  0.03900000  0.47210000  1.0
  N  N584  1  0.15570000  0.98290000  0.55830000  1.0
  N  N585  1  0.07490000  0.07280000  0.56260000  1.0
  N  N586  1  0.24360000  0.90860000  0.90680000  1.0
  N  N587  1  0.24630000  0.77680000  0.27100000  1.0
  N  N588  1  0.89220000  0.56420000  0.92200000  1.0
  N  N589  1  0.09730000  0.73890000  0.97290000  1.0
  N  N590  1  0.18580000  0.78710000  0.05830000  1.0
  N  N591  1  0.10350000  0.70120000  0.06390000  1.0
