# generated using pymatgen
data_YbH3(CO2)3
_symmetry_space_group_name_H-M   'P 1'
_cell_length_a   11.12700000
_cell_length_b   7.08700000
_cell_length_c   6.51830000
_cell_angle_alpha   90.00000000
_cell_angle_beta   109.33400000
_cell_angle_gamma   90.00000000
_symmetry_Int_Tables_number   1
_chemical_formula_structural   YbH3(CO2)3
_chemical_formula_sum   'Yb2 H6 C6 O12'
_cell_volume   485.02591074
_cell_formula_units_Z   2
loop_
 _symmetry_equiv_pos_site_id
 _symmetry_equiv_pos_as_xyz
  1  'x, y, z'
loop_
 _atom_site_type_symbol
 _atom_site_label
 _atom_site_symmetry_multiplicity
 _atom_site_fract_x
 _atom_site_fract_y
 _atom_site_fract_z
 _atom_site_occupancy
  Yb  Yb0  1  0.00000000  0.64300000  0.00000000  1.0
  Yb  Yb1  1  0.50000000  0.14300000  0.00000000  1.0
  H  H2  1  0.80190000  0.97600000  0.10800000  1.0
  H  H3  1  0.30190000  0.47600000  0.10800000  1.0
  H  H4  1  0.19810000  0.97600000  0.89200000  1.0
  H  H5  1  0.69810000  0.47600000  0.89200000  1.0
  H  H6  1  0.00000000  0.57660000  0.50000000  1.0
  H  H7  1  0.50000000  0.07660000  0.50000000  1.0
  C  C8  1  0.76330000  0.93500000  0.96600000  1.0
  C  C9  1  0.26330000  0.43500000  0.96600000  1.0
  C  C10  1  0.23670000  0.93500000  0.03400000  1.0
  C  C11  1  0.73670000  0.43500000  0.03400000  1.0
  C  C12  1  0.00000000  0.70800000  0.50000000  1.0
  C  C13  1  0.50000000  0.20800000  0.50000000  1.0
  O  O14  1  0.00720000  0.78850000  0.33400000  1.0
  O  O15  1  0.83060000  0.83800000  0.88600000  1.0
  O  O16  1  0.65480000  0.98300000  0.88000000  1.0
  O  O17  1  0.50720000  0.28850000  0.33400000  1.0
  O  O18  1  0.33060000  0.33800000  0.88600000  1.0
  O  O19  1  0.15480000  0.48300000  0.88000000  1.0
  O  O20  1  0.99280000  0.78850000  0.66600000  1.0
  O  O21  1  0.16940000  0.83800000  0.11400000  1.0
  O  O22  1  0.34520000  0.98300000  0.12000000  1.0
  O  O23  1  0.49280000  0.28850000  0.66600000  1.0
  O  O24  1  0.66940000  0.33800000  0.11400000  1.0
  O  O25  1  0.84520000  0.48300000  0.12000000  1.0
