# generated using pymatgen
data_AlH5C8O5
_symmetry_space_group_name_H-M   'P 1'
_cell_length_a   17.12900000
_cell_length_b   6.62840000
_cell_length_c   12.18160000
_cell_angle_alpha   90.00000000
_cell_angle_beta   90.00000000
_cell_angle_gamma   90.00000000
_symmetry_Int_Tables_number   1
_chemical_formula_structural   AlH5C8O5
_chemical_formula_sum   'Al4 H20 C32 O20'
_cell_volume   1383.07283923
_cell_formula_units_Z   4
loop_
 _symmetry_equiv_pos_site_id
 _symmetry_equiv_pos_as_xyz
  1  'x, y, z'
loop_
 _atom_site_type_symbol
 _atom_site_label
 _atom_site_symmetry_multiplicity
 _atom_site_fract_x
 _atom_site_fract_y
 _atom_site_fract_z
 _atom_site_occupancy
  Al  Al0  1  0.00184000  0.00815000  0.99891000  1.0
  Al  Al1  1  0.50246000  0.00700000  0.49631000  1.0
  Al  Al2  1  0.00180000  0.50804000  0.99628000  1.0
  Al  Al3  1  0.50149000  0.50826000  0.49995000  1.0
  H  H4  1  0.20344000  0.07928000  0.17100000  1.0
  H  H5  1  0.32573000  0.07955000  0.27542000  1.0
  H  H6  1  0.29906000  0.92886000  0.67006000  1.0
  H  H7  1  0.17610000  0.92868000  0.77357000  1.0
  H  H8  1  0.79674000  0.57957000  0.83025000  1.0
  H  H9  1  0.67486000  0.57972000  0.72493000  1.0
  H  H10  1  0.70477000  0.42860000  0.32652000  1.0
  H  H11  1  0.82731000  0.42877000  0.22221000  1.0
  H  H12  1  0.79709000  0.93047000  0.82929000  1.0
  H  H13  1  0.67514000  0.93071000  0.72384000  1.0
  H  H14  1  0.70489000  0.07746000  0.32704000  1.0
  H  H15  1  0.82734000  0.07745000  0.22321000  1.0
  H  H16  1  0.20314000  0.43077000  0.17175000  1.0
  H  H17  1  0.32534000  0.43037000  0.27655000  1.0
  H  H18  1  0.29897000  0.57742000  0.66955000  1.0
  H  H19  1  0.17617000  0.57802000  0.77264000  1.0
  H  H20  1  0.51416000  0.26019000  0.36979000  1.0
  H  H21  1  0.50215000  0.76047000  0.62887000  1.0
  H  H22  1  0.01841000  0.26004000  0.12543000  1.0
  H  H23  1  0.99965000  0.76007000  0.86745000  1.0
  C  C24  1  0.22872000  0.93670000  0.19502000  1.0
  C  C25  1  0.29944000  0.93681000  0.25417000  1.0
  C  C26  1  0.27318000  0.07140000  0.69256000  1.0
  C  C27  1  0.20192000  0.07178000  0.75098000  1.0
  C  C28  1  0.77142000  0.43670000  0.80673000  1.0
  C  C29  1  0.70082000  0.43685000  0.74719000  1.0
  C  C30  1  0.72987000  0.57114000  0.30225000  1.0
  C  C31  1  0.80087000  0.57158000  0.24361000  1.0
  C  C32  1  0.77155000  0.07344000  0.80614000  1.0
  C  C33  1  0.70097000  0.07362000  0.74645000  1.0
  C  C34  1  0.72994000  0.93450000  0.30253000  1.0
  C  C35  1  0.80090000  0.93487000  0.24420000  1.0
  C  C36  1  0.22857000  0.57340000  0.19548000  1.0
  C  C37  1  0.29926000  0.57338000  0.25488000  1.0
  C  C38  1  0.27313000  0.43452000  0.69225000  1.0
  C  C39  1  0.20191000  0.43507000  0.75039000  1.0
  C  C40  1  0.40499000  0.75581000  0.36276000  1.0
  C  C41  1  0.11410000  0.75578000  0.10647000  1.0
  C  C42  1  0.33504000  0.75518000  0.28738000  1.0
  C  C43  1  0.19073000  0.75512000  0.16757000  1.0
  C  C44  1  0.09648000  0.25525000  0.85941000  1.0
  C  C45  1  0.38857000  0.25366000  0.60574000  1.0
  C  C46  1  0.16579000  0.25390000  0.78301000  1.0
  C  C47  1  0.31116000  0.25317000  0.66510000  1.0
  C  C48  1  0.59727000  0.25599000  0.63482000  1.0
  C  C49  1  0.88710000  0.25546000  0.89295000  1.0
  C  C50  1  0.66547000  0.25545000  0.71300000  1.0
  C  C51  1  0.80956000  0.25497000  0.83393000  1.0
  C  C52  1  0.90602000  0.75505000  0.13439000  1.0
  C  C53  1  0.61417000  0.75373000  0.38894000  1.0
  C  C54  1  0.83658000  0.75367000  0.21089000  1.0
  C  C55  1  0.69136000  0.75312000  0.32891000  1.0
  O  O56  1  0.08295000  0.92756000  0.08189000  1.0
  O  O57  1  0.43312000  0.92799000  0.39387000  1.0
  O  O58  1  0.41958000  0.08310000  0.57835000  1.0
  O  O59  1  0.07025000  0.08486000  0.89497000  1.0
  O  O60  1  0.91868000  0.42746000  0.91654000  1.0
  O  O61  1  0.56964000  0.42801000  0.60310000  1.0
  O  O62  1  0.58352000  0.58315000  0.41688000  1.0
  O  O63  1  0.93250000  0.58439000  0.09914000  1.0
  O  O64  1  0.91829000  0.08423000  0.91904000  1.0
  O  O65  1  0.57171000  0.08591000  0.59858000  1.0
  O  O66  1  0.58293000  0.92635000  0.41246000  1.0
  O  O67  1  0.93337000  0.92749000  0.10242000  1.0
  O  O68  1  0.08348000  0.58500000  0.07900000  1.0
  O  O69  1  0.43136000  0.58522000  0.39797000  1.0
  O  O70  1  0.41998000  0.42618000  0.58233000  1.0
  O  O71  1  0.06916000  0.42744000  0.89141000  1.0
  O  O72  1  0.00033000  0.75904000  0.93824000  1.0
  O  O73  1  0.50752000  0.25915000  0.43997000  1.0
  O  O74  1  0.00901000  0.25908000  0.05589000  1.0
  O  O75  1  0.50121000  0.75932000  0.55804000  1.0
