# generated using pymatgen
data_Zn3H10C23O11
_symmetry_space_group_name_H-M   'P 1'
_cell_length_a   20.13700000
_cell_length_b   10.70200000
_cell_length_c   11.41800000
_cell_angle_alpha   90.00000000
_cell_angle_beta   90.00000000
_cell_angle_gamma   90.00000000
_symmetry_Int_Tables_number   1
_chemical_formula_structural   Zn3H10C23O11
_chemical_formula_sum   'Zn6 H20 C46 O22'
_cell_volume   2460.64949473
_cell_formula_units_Z   2
loop_
 _symmetry_equiv_pos_site_id
 _symmetry_equiv_pos_as_xyz
  1  'x, y, z'
loop_
 _atom_site_type_symbol
 _atom_site_label
 _atom_site_symmetry_multiplicity
 _atom_site_fract_x
 _atom_site_fract_y
 _atom_site_fract_z
 _atom_site_occupancy
  Zn  Zn0  1  0.07895000  0.12913000  0.45551000  1.0
  Zn  Zn1  1  0.42105000  0.87087000  0.95551000  1.0
  Zn  Zn2  1  0.57895000  0.87087000  0.95551000  1.0
  Zn  Zn3  1  0.92105000  0.12913000  0.45551000  1.0
  Zn  Zn4  1  0.00000000  0.86070000  0.54570000  1.0
  Zn  Zn5  1  0.50000000  0.13930000  0.04570000  1.0
  H  H6  1  0.15940000  0.56340000  0.11450000  1.0
  H  H7  1  0.25630000  0.65310000  0.05430000  1.0
  H  H8  1  0.21520000  0.95680000  0.24290000  1.0
  H  H9  1  0.10080000  0.48250000  0.29790000  1.0
  H  H10  1  0.34060000  0.43660000  0.61450000  1.0
  H  H11  1  0.24370000  0.34690000  0.55430000  1.0
  H  H12  1  0.28480000  0.04320000  0.74290000  1.0
  H  H13  1  0.39920000  0.51750000  0.79790000  1.0
  H  H14  1  0.65940000  0.43660000  0.61450000  1.0
  H  H15  1  0.75630000  0.34690000  0.55430000  1.0
  H  H16  1  0.71520000  0.04320000  0.74290000  1.0
  H  H17  1  0.60080000  0.51750000  0.79790000  1.0
  H  H18  1  0.84060000  0.56340000  0.11450000  1.0
  H  H19  1  0.74370000  0.65310000  0.05430000  1.0
  H  H20  1  0.78480000  0.95680000  0.24290000  1.0
  H  H21  1  0.89920000  0.48250000  0.29790000  1.0
  H  H22  1  0.00000000  0.78830000  0.19360000  1.0
  H  H23  1  0.00000000  0.10870000  0.59190000  1.0
  H  H24  1  0.50000000  0.21170000  0.69360000  1.0
  H  H25  1  0.50000000  0.89130000  0.09190000  1.0
  C  C26  1  0.10350000  0.89640000  0.34260000  1.0
  C  C27  1  0.14200000  0.82570000  0.25090000  1.0
  C  C28  1  0.12470000  0.70740000  0.21110000  1.0
  C  C29  1  0.16960000  0.64390000  0.13920000  1.0
  C  C30  1  0.22800000  0.69630000  0.10430000  1.0
  C  C31  1  0.24520000  0.81680000  0.14470000  1.0
  C  C32  1  0.20350000  0.87790000  0.21580000  1.0
  C  C33  1  0.30960000  0.87310000  0.10360000  1.0
  C  C34  1  0.06070000  0.64540000  0.24020000  1.0
  C  C35  1  0.06080000  0.52290000  0.28290000  1.0
  C  C36  1  0.39650000  0.10360000  0.84260000  1.0
  C  C37  1  0.35800000  0.17430000  0.75090000  1.0
  C  C38  1  0.37530000  0.29260000  0.71110000  1.0
  C  C39  1  0.33040000  0.35610000  0.63920000  1.0
  C  C40  1  0.27200000  0.30370000  0.60430000  1.0
  C  C41  1  0.25480000  0.18320000  0.64470000  1.0
  C  C42  1  0.29650000  0.12210000  0.71580000  1.0
  C  C43  1  0.19040000  0.12690000  0.60360000  1.0
  C  C44  1  0.43930000  0.35460000  0.74020000  1.0
  C  C45  1  0.43920000  0.47710000  0.78290000  1.0
  C  C46  1  0.60350000  0.10360000  0.84260000  1.0
  C  C47  1  0.64200000  0.17430000  0.75090000  1.0
  C  C48  1  0.62470000  0.29260000  0.71110000  1.0
  C  C49  1  0.66960000  0.35610000  0.63920000  1.0
  C  C50  1  0.72800000  0.30370000  0.60430000  1.0
  C  C51  1  0.74520000  0.18320000  0.64470000  1.0
  C  C52  1  0.70350000  0.12210000  0.71580000  1.0
  C  C53  1  0.80960000  0.12690000  0.60360000  1.0
  C  C54  1  0.56070000  0.35460000  0.74020000  1.0
  C  C55  1  0.56080000  0.47710000  0.78290000  1.0
  C  C56  1  0.89650000  0.89640000  0.34260000  1.0
  C  C57  1  0.85800000  0.82570000  0.25090000  1.0
  C  C58  1  0.87530000  0.70740000  0.21110000  1.0
  C  C59  1  0.83040000  0.64390000  0.13920000  1.0
  C  C60  1  0.77200000  0.69630000  0.10430000  1.0
  C  C61  1  0.75480000  0.81680000  0.14470000  1.0
  C  C62  1  0.79650000  0.87790000  0.21580000  1.0
  C  C63  1  0.69040000  0.87310000  0.10360000  1.0
  C  C64  1  0.93930000  0.64540000  0.24020000  1.0
  C  C65  1  0.93920000  0.52290000  0.28290000  1.0
  C  C66  1  0.00000000  0.70620000  0.22040000  1.0
  C  C67  1  0.00000000  0.46050000  0.30320000  1.0
  C  C68  1  0.00000000  0.33470000  0.35170000  1.0
  C  C69  1  0.50000000  0.29380000  0.72040000  1.0
  C  C70  1  0.50000000  0.53950000  0.80320000  1.0
  C  C71  1  0.50000000  0.66530000  0.85170000  1.0
  O  O72  1  0.07370000  0.83830000  0.41890000  1.0
  O  O73  1  0.10470000  0.01620000  0.33170000  1.0
  O  O74  1  0.32200000  0.98260000  0.13570000  1.0
  O  O75  1  0.34620000  0.80870000  0.03880000  1.0
  O  O76  1  0.05520000  0.28280000  0.37050000  1.0
  O  O77  1  0.42630000  0.16170000  0.91890000  1.0
  O  O78  1  0.39530000  0.98380000  0.83170000  1.0
  O  O79  1  0.17800000  0.01740000  0.63570000  1.0
  O  O80  1  0.15380000  0.19130000  0.53880000  1.0
  O  O81  1  0.44480000  0.71720000  0.87050000  1.0
  O  O82  1  0.57370000  0.16170000  0.91890000  1.0
  O  O83  1  0.60470000  0.98380000  0.83170000  1.0
  O  O84  1  0.82200000  0.01740000  0.63570000  1.0
  O  O85  1  0.84620000  0.19130000  0.53880000  1.0
  O  O86  1  0.55520000  0.71720000  0.87050000  1.0
  O  O87  1  0.92630000  0.83830000  0.41890000  1.0
  O  O88  1  0.89530000  0.01620000  0.33170000  1.0
  O  O89  1  0.67800000  0.98260000  0.13570000  1.0
  O  O90  1  0.65380000  0.80870000  0.03880000  1.0
  O  O91  1  0.94480000  0.28280000  0.37050000  1.0
  O  O92  1  0.00000000  0.06270000  0.53420000  1.0
  O  O93  1  0.50000000  0.93730000  0.03420000  1.0
