# generated using pymatgen
data_AgH12(C3N)6
_symmetry_space_group_name_H-M   'P 1'
_cell_length_a   11.08400000
_cell_length_b   24.94400000
_cell_length_c   23.28400000
_cell_angle_alpha   90.00000000
_cell_angle_beta   96.97400000
_cell_angle_gamma   90.00000000
_symmetry_Int_Tables_number   1
_chemical_formula_structural   AgH12(C3N)6
_chemical_formula_sum   'Ag12 H144 C216 N72'
_cell_volume   6389.91480656
_cell_formula_units_Z   12
loop_
 _symmetry_equiv_pos_site_id
 _symmetry_equiv_pos_as_xyz
  1  'x, y, z'
loop_
 _atom_site_type_symbol
 _atom_site_label
 _atom_site_symmetry_multiplicity
 _atom_site_fract_x
 _atom_site_fract_y
 _atom_site_fract_z
 _atom_site_occupancy
  Ag  Ag0  1  0.24532000  0.87136000  0.90730000  1.0
  Ag  Ag1  1  0.74532000  0.37136000  0.90730000  1.0
  Ag  Ag2  1  0.24532000  0.12864000  0.40730000  1.0
  Ag  Ag3  1  0.74532000  0.62864000  0.40730000  1.0
  Ag  Ag4  1  0.91618000  0.86186000  0.88651000  1.0
  Ag  Ag5  1  0.41618000  0.36186000  0.88651000  1.0
  Ag  Ag6  1  0.91618000  0.13814000  0.38651000  1.0
  Ag  Ag7  1  0.41618000  0.63814000  0.38651000  1.0
  Ag  Ag8  1  0.61941000  0.86325000  0.94374000  1.0
  Ag  Ag9  1  0.11941000  0.36325000  0.94374000  1.0
  Ag  Ag10  1  0.61941000  0.13675000  0.44374000  1.0
  Ag  Ag11  1  0.11941000  0.63675000  0.44374000  1.0
  H  H12  1  0.26770000  0.93870000  0.79800000  1.0
  H  H13  1  0.22270000  0.94040000  0.69780000  1.0
  H  H14  1  0.10370000  0.78860000  0.70400000  1.0
  H  H15  1  0.15860000  0.79030000  0.80150000  1.0
  H  H16  1  0.22270000  0.08460000  0.53180000  1.0
  H  H17  1  0.18050000  0.00790000  0.58130000  1.0
  H  H18  1  0.10250000  0.93260000  0.43070000  1.0
  H  H19  1  0.13610000  0.01360000  0.38230000  1.0
  H  H20  1  0.85900000  0.74180000  0.38720000  1.0
  H  H21  1  0.94940000  0.81460000  0.43420000  1.0
  H  H22  1  0.96700000  0.73600000  0.58300000  1.0
  H  H23  1  0.87980000  0.66230000  0.53260000  1.0
  H  H24  1  0.76770000  0.43870000  0.79800000  1.0
  H  H25  1  0.72270000  0.44040000  0.69780000  1.0
  H  H26  1  0.60370000  0.28860000  0.70400000  1.0
  H  H27  1  0.65860000  0.29030000  0.80150000  1.0
  H  H28  1  0.72270000  0.58460000  0.53180000  1.0
  H  H29  1  0.68050000  0.50790000  0.58130000  1.0
  H  H30  1  0.60250000  0.43260000  0.43070000  1.0
  H  H31  1  0.63610000  0.51360000  0.38230000  1.0
  H  H32  1  0.35900000  0.24180000  0.38720000  1.0
  H  H33  1  0.44940000  0.31460000  0.43420000  1.0
  H  H34  1  0.46700000  0.23600000  0.58300000  1.0
  H  H35  1  0.37980000  0.16230000  0.53260000  1.0
  H  H36  1  0.26770000  0.06130000  0.29800000  1.0
  H  H37  1  0.22270000  0.05960000  0.19780000  1.0
  H  H38  1  0.10370000  0.21140000  0.20400000  1.0
  H  H39  1  0.15860000  0.20970000  0.30150000  1.0
  H  H40  1  0.22270000  0.91540000  0.03180000  1.0
  H  H41  1  0.18050000  0.99210000  0.08130000  1.0
  H  H42  1  0.10250000  0.06740000  0.93070000  1.0
  H  H43  1  0.13610000  0.98640000  0.88230000  1.0
  H  H44  1  0.85900000  0.25820000  0.88720000  1.0
  H  H45  1  0.94940000  0.18540000  0.93420000  1.0
  H  H46  1  0.96700000  0.26400000  0.08300000  1.0
  H  H47  1  0.87980000  0.33770000  0.03260000  1.0
  H  H48  1  0.76770000  0.56130000  0.29800000  1.0
  H  H49  1  0.72270000  0.55960000  0.19780000  1.0
  H  H50  1  0.60370000  0.71140000  0.20400000  1.0
  H  H51  1  0.65860000  0.70970000  0.30150000  1.0
  H  H52  1  0.72270000  0.41540000  0.03180000  1.0
  H  H53  1  0.68050000  0.49210000  0.08130000  1.0
  H  H54  1  0.60250000  0.56740000  0.93070000  1.0
  H  H55  1  0.63610000  0.48640000  0.88230000  1.0
  H  H56  1  0.35900000  0.75820000  0.88720000  1.0
  H  H57  1  0.44940000  0.68540000  0.93420000  1.0
  H  H58  1  0.46700000  0.76400000  0.08300000  1.0
  H  H59  1  0.37980000  0.83770000  0.03260000  1.0
  H  H60  1  0.91950000  0.93900000  0.78080000  1.0
  H  H61  1  0.86550000  0.94800000  0.68350000  1.0
  H  H62  1  0.76950000  0.79300000  0.68100000  1.0
  H  H63  1  0.82360000  0.78950000  0.77640000  1.0
  H  H64  1  0.91890000  0.08990000  0.51350000  1.0
  H  H65  1  0.87260000  0.01230000  0.56300000  1.0
  H  H66  1  0.75430000  0.94440000  0.41190000  1.0
  H  H67  1  0.80810000  0.02060000  0.36590000  1.0
  H  H68  1  0.51120000  0.75470000  0.36570000  1.0
  H  H69  1  0.60750000  0.82650000  0.41200000  1.0
  H  H70  1  0.63920000  0.74200000  0.55830000  1.0
  H  H71  1  0.54360000  0.67200000  0.50620000  1.0
  H  H72  1  0.41950000  0.43900000  0.78080000  1.0
  H  H73  1  0.36550000  0.44800000  0.68350000  1.0
  H  H74  1  0.26950000  0.29300000  0.68100000  1.0
  H  H75  1  0.32360000  0.28950000  0.77640000  1.0
  H  H76  1  0.41890000  0.58990000  0.51350000  1.0
  H  H77  1  0.37260000  0.51230000  0.56300000  1.0
  H  H78  1  0.25430000  0.44440000  0.41190000  1.0
  H  H79  1  0.30810000  0.52060000  0.36590000  1.0
  H  H80  1  0.01120000  0.25470000  0.36570000  1.0
  H  H81  1  0.10750000  0.32650000  0.41200000  1.0
  H  H82  1  0.13920000  0.24200000  0.55830000  1.0
  H  H83  1  0.04360000  0.17200000  0.50620000  1.0
  H  H84  1  0.91950000  0.06100000  0.28080000  1.0
  H  H85  1  0.86550000  0.05200000  0.18350000  1.0
  H  H86  1  0.76950000  0.20700000  0.18100000  1.0
  H  H87  1  0.82360000  0.21050000  0.27640000  1.0
  H  H88  1  0.91890000  0.91010000  0.01350000  1.0
  H  H89  1  0.87260000  0.98770000  0.06300000  1.0
  H  H90  1  0.75430000  0.05560000  0.91190000  1.0
  H  H91  1  0.80810000  0.97940000  0.86590000  1.0
  H  H92  1  0.51120000  0.24530000  0.86570000  1.0
  H  H93  1  0.60750000  0.17350000  0.91200000  1.0
  H  H94  1  0.63920000  0.25800000  0.05830000  1.0
  H  H95  1  0.54360000  0.32800000  0.00620000  1.0
  H  H96  1  0.41950000  0.56100000  0.28080000  1.0
  H  H97  1  0.36550000  0.55200000  0.18350000  1.0
  H  H98  1  0.26950000  0.70700000  0.18100000  1.0
  H  H99  1  0.32360000  0.71050000  0.27640000  1.0
  H  H100  1  0.41890000  0.41010000  0.01350000  1.0
  H  H101  1  0.37260000  0.48770000  0.06300000  1.0
  H  H102  1  0.25430000  0.55560000  0.91190000  1.0
  H  H103  1  0.30810000  0.47940000  0.86590000  1.0
  H  H104  1  0.01120000  0.74530000  0.86570000  1.0
  H  H105  1  0.10750000  0.67350000  0.91200000  1.0
  H  H106  1  0.13920000  0.75800000  0.05830000  1.0
  H  H107  1  0.04360000  0.82800000  0.00620000  1.0
  H  H108  1  0.53360000  0.79210000  0.83650000  1.0
  H  H109  1  0.49310000  0.79110000  0.73870000  1.0
  H  H110  1  0.54390000  0.95000000  0.73820000  1.0
  H  H111  1  0.59160000  0.94580000  0.83780000  1.0
  H  H112  1  0.63740000  0.08580000  0.57100000  1.0
  H  H113  1  0.59000000  0.00910000  0.61910000  1.0
  H  H114  1  0.44140000  0.94770000  0.46960000  1.0
  H  H115  1  0.47710000  0.02980000  0.42660000  1.0
  H  H116  1  0.21340000  0.75170000  0.42120000  1.0
  H  H117  1  0.32000000  0.82430000  0.46680000  1.0
  H  H118  1  0.33240000  0.74290000  0.61700000  1.0
  H  H119  1  0.23260000  0.67430000  0.56490000  1.0
  H  H120  1  0.03360000  0.29210000  0.83650000  1.0
  H  H121  1  0.99310000  0.29110000  0.73870000  1.0
  H  H122  1  0.04390000  0.45000000  0.73820000  1.0
  H  H123  1  0.09160000  0.44580000  0.83780000  1.0
  H  H124  1  0.13740000  0.58580000  0.57100000  1.0
  H  H125  1  0.09000000  0.50910000  0.61910000  1.0
  H  H126  1  0.94140000  0.44770000  0.46960000  1.0
  H  H127  1  0.97710000  0.52980000  0.42660000  1.0
  H  H128  1  0.71340000  0.25170000  0.42120000  1.0
  H  H129  1  0.82000000  0.32430000  0.46680000  1.0
  H  H130  1  0.83240000  0.24290000  0.61700000  1.0
  H  H131  1  0.73260000  0.17430000  0.56490000  1.0
  H  H132  1  0.53360000  0.20790000  0.33650000  1.0
  H  H133  1  0.49310000  0.20890000  0.23870000  1.0
  H  H134  1  0.54390000  0.05000000  0.23820000  1.0
  H  H135  1  0.59160000  0.05420000  0.33780000  1.0
  H  H136  1  0.63740000  0.91420000  0.07100000  1.0
  H  H137  1  0.59000000  0.99090000  0.11910000  1.0
  H  H138  1  0.44140000  0.05230000  0.96960000  1.0
  H  H139  1  0.47710000  0.97020000  0.92660000  1.0
  H  H140  1  0.21340000  0.24830000  0.92120000  1.0
  H  H141  1  0.32000000  0.17570000  0.96680000  1.0
  H  H142  1  0.33240000  0.25710000  0.11700000  1.0
  H  H143  1  0.23260000  0.32570000  0.06490000  1.0
  H  H144  1  0.03360000  0.70790000  0.33650000  1.0
  H  H145  1  0.99310000  0.70890000  0.23870000  1.0
  H  H146  1  0.04390000  0.55000000  0.23820000  1.0
  H  H147  1  0.09160000  0.55420000  0.33780000  1.0
  H  H148  1  0.13740000  0.41420000  0.07100000  1.0
  H  H149  1  0.09000000  0.49090000  0.11910000  1.0
  H  H150  1  0.94140000  0.55230000  0.96960000  1.0
  H  H151  1  0.97710000  0.47020000  0.92660000  1.0
  H  H152  1  0.71340000  0.74830000  0.92120000  1.0
  H  H153  1  0.82000000  0.67570000  0.96680000  1.0
  H  H154  1  0.83240000  0.75710000  0.11700000  1.0
  H  H155  1  0.73260000  0.82570000  0.06490000  1.0
  C  C156  1  0.23340000  0.90850000  0.77910000  1.0
  C  C157  1  0.20580000  0.90990000  0.71840000  1.0
  C  C158  1  0.15290000  0.86530000  0.68940000  1.0
  C  C159  1  0.13600000  0.81970000  0.72180000  1.0
  C  C160  1  0.16810000  0.82160000  0.78070000  1.0
  C  C161  1  0.19680000  0.05410000  0.51110000  1.0
  C  C162  1  0.17250000  0.00790000  0.54100000  1.0
  C  C163  1  0.13680000  0.96240000  0.51080000  1.0
  C  C164  1  0.12500000  0.96340000  0.45180000  1.0
  C  C165  1  0.14720000  0.01220000  0.42260000  1.0
  C  C166  1  0.88210000  0.74020000  0.42690000  1.0
  C  C167  1  0.93590000  0.78380000  0.45510000  1.0
  C  C168  1  0.97000000  0.78260000  0.51380000  1.0
  C  C169  1  0.94740000  0.73770000  0.54310000  1.0
  C  C170  1  0.89350000  0.69350000  0.51230000  1.0
  C  C171  1  0.03130000  0.82910000  0.54360000  1.0
  C  C172  1  0.11900000  0.86680000  0.62780000  1.0
  C  C173  1  0.11120000  0.91240000  0.54210000  1.0
  C  C174  1  0.73340000  0.40850000  0.77910000  1.0
  C  C175  1  0.70580000  0.40990000  0.71840000  1.0
  C  C176  1  0.65290000  0.36530000  0.68940000  1.0
  C  C177  1  0.63600000  0.31970000  0.72180000  1.0
  C  C178  1  0.66810000  0.32160000  0.78070000  1.0
  C  C179  1  0.69680000  0.55410000  0.51110000  1.0
  C  C180  1  0.67250000  0.50790000  0.54100000  1.0
  C  C181  1  0.63680000  0.46240000  0.51080000  1.0
  C  C182  1  0.62500000  0.46340000  0.45180000  1.0
  C  C183  1  0.64720000  0.51220000  0.42260000  1.0
  C  C184  1  0.38210000  0.24020000  0.42690000  1.0
  C  C185  1  0.43590000  0.28380000  0.45510000  1.0
  C  C186  1  0.47000000  0.28260000  0.51380000  1.0
  C  C187  1  0.44740000  0.23770000  0.54310000  1.0
  C  C188  1  0.39350000  0.19350000  0.51230000  1.0
  C  C189  1  0.53130000  0.32910000  0.54360000  1.0
  C  C190  1  0.61900000  0.36680000  0.62780000  1.0
  C  C191  1  0.61120000  0.41240000  0.54210000  1.0
  C  C192  1  0.23340000  0.09150000  0.27910000  1.0
  C  C193  1  0.20580000  0.09010000  0.21840000  1.0
  C  C194  1  0.15290000  0.13470000  0.18940000  1.0
  C  C195  1  0.13600000  0.18030000  0.22180000  1.0
  C  C196  1  0.16810000  0.17840000  0.28070000  1.0
  C  C197  1  0.19680000  0.94590000  0.01110000  1.0
  C  C198  1  0.17250000  0.99210000  0.04100000  1.0
  C  C199  1  0.13680000  0.03760000  0.01080000  1.0
  C  C200  1  0.12500000  0.03660000  0.95180000  1.0
  C  C201  1  0.14720000  0.98780000  0.92260000  1.0
  C  C202  1  0.88210000  0.25980000  0.92690000  1.0
  C  C203  1  0.93590000  0.21620000  0.95510000  1.0
  C  C204  1  0.97000000  0.21740000  0.01380000  1.0
  C  C205  1  0.94740000  0.26230000  0.04310000  1.0
  C  C206  1  0.89350000  0.30650000  0.01230000  1.0
  C  C207  1  0.03130000  0.17090000  0.04360000  1.0
  C  C208  1  0.11900000  0.13320000  0.12780000  1.0
  C  C209  1  0.11120000  0.08760000  0.04210000  1.0
  C  C210  1  0.73340000  0.59150000  0.27910000  1.0
  C  C211  1  0.70580000  0.59010000  0.21840000  1.0
  C  C212  1  0.65290000  0.63470000  0.18940000  1.0
  C  C213  1  0.63600000  0.68030000  0.22180000  1.0
  C  C214  1  0.66810000  0.67840000  0.28070000  1.0
  C  C215  1  0.69680000  0.44590000  0.01110000  1.0
  C  C216  1  0.67250000  0.49210000  0.04100000  1.0
  C  C217  1  0.63680000  0.53760000  0.01080000  1.0
  C  C218  1  0.62500000  0.53660000  0.95180000  1.0
  C  C219  1  0.64720000  0.48780000  0.92260000  1.0
  C  C220  1  0.38210000  0.75980000  0.92690000  1.0
  C  C221  1  0.43590000  0.71620000  0.95510000  1.0
  C  C222  1  0.47000000  0.71740000  0.01380000  1.0
  C  C223  1  0.44740000  0.76230000  0.04310000  1.0
  C  C224  1  0.39350000  0.80650000  0.01230000  1.0
  C  C225  1  0.53130000  0.67090000  0.04360000  1.0
  C  C226  1  0.61900000  0.63320000  0.12780000  1.0
  C  C227  1  0.61120000  0.58760000  0.04210000  1.0
  C  C228  1  0.88550000  0.90960000  0.76030000  1.0
  C  C229  1  0.85600000  0.91530000  0.70160000  1.0
  C  C230  1  0.81160000  0.87070000  0.67020000  1.0
  C  C231  1  0.79930000  0.82370000  0.70060000  1.0
  C  C232  1  0.82990000  0.82210000  0.75780000  1.0
  C  C233  1  0.88490000  0.06060000  0.49270000  1.0
  C  C234  1  0.85800000  0.01360000  0.52290000  1.0
  C  C235  1  0.81010000  0.97000000  0.49220000  1.0
  C  C236  1  0.78870000  0.97320000  0.43340000  1.0
  C  C237  1  0.81870000  0.01970000  0.40610000  1.0
  C  C238  1  0.53780000  0.75210000  0.40510000  1.0
  C  C239  1  0.59550000  0.79560000  0.43290000  1.0
  C  C240  1  0.63470000  0.79370000  0.49010000  1.0
  C  C241  1  0.61440000  0.74570000  0.51890000  1.0
  C  C242  1  0.55620000  0.70380000  0.48700000  1.0
  C  C243  1  0.69690000  0.83830000  0.52290000  1.0
  C  C244  1  0.78190000  0.87440000  0.60730000  1.0
  C  C245  1  0.78100000  0.92100000  0.52290000  1.0
  C  C246  1  0.38550000  0.40960000  0.76030000  1.0
  C  C247  1  0.35600000  0.41530000  0.70160000  1.0
  C  C248  1  0.31160000  0.37070000  0.67020000  1.0
  C  C249  1  0.29930000  0.32370000  0.70060000  1.0
  C  C250  1  0.32990000  0.32210000  0.75780000  1.0
  C  C251  1  0.38490000  0.56060000  0.49270000  1.0
  C  C252  1  0.35800000  0.51360000  0.52290000  1.0
  C  C253  1  0.31010000  0.47000000  0.49220000  1.0
  C  C254  1  0.28870000  0.47320000  0.43340000  1.0
  C  C255  1  0.31870000  0.51970000  0.40610000  1.0
  C  C256  1  0.03780000  0.25210000  0.40510000  1.0
  C  C257  1  0.09550000  0.29560000  0.43290000  1.0
  C  C258  1  0.13470000  0.29370000  0.49010000  1.0
  C  C259  1  0.11440000  0.24570000  0.51890000  1.0
  C  C260  1  0.05620000  0.20380000  0.48700000  1.0
  C  C261  1  0.19690000  0.33830000  0.52290000  1.0
  C  C262  1  0.28190000  0.37440000  0.60730000  1.0
  C  C263  1  0.28100000  0.42100000  0.52290000  1.0
  C  C264  1  0.88550000  0.09040000  0.26030000  1.0
  C  C265  1  0.85600000  0.08470000  0.20160000  1.0
  C  C266  1  0.81160000  0.12930000  0.17020000  1.0
  C  C267  1  0.79930000  0.17630000  0.20060000  1.0
  C  C268  1  0.82990000  0.17790000  0.25780000  1.0
  C  C269  1  0.88490000  0.93940000  0.99270000  1.0
  C  C270  1  0.85800000  0.98640000  0.02290000  1.0
  C  C271  1  0.81010000  0.03000000  0.99220000  1.0
  C  C272  1  0.78870000  0.02680000  0.93340000  1.0
  C  C273  1  0.81870000  0.98030000  0.90610000  1.0
  C  C274  1  0.53780000  0.24790000  0.90510000  1.0
  C  C275  1  0.59550000  0.20440000  0.93290000  1.0
  C  C276  1  0.63470000  0.20630000  0.99010000  1.0
  C  C277  1  0.61440000  0.25430000  0.01890000  1.0
  C  C278  1  0.55620000  0.29620000  0.98700000  1.0
  C  C279  1  0.69690000  0.16170000  0.02290000  1.0
  C  C280  1  0.78190000  0.12560000  0.10730000  1.0
  C  C281  1  0.78100000  0.07900000  0.02290000  1.0
  C  C282  1  0.38550000  0.59040000  0.26030000  1.0
  C  C283  1  0.35600000  0.58470000  0.20160000  1.0
  C  C284  1  0.31160000  0.62930000  0.17020000  1.0
  C  C285  1  0.29930000  0.67630000  0.20060000  1.0
  C  C286  1  0.32990000  0.67790000  0.25780000  1.0
  C  C287  1  0.38490000  0.43940000  0.99270000  1.0
  C  C288  1  0.35800000  0.48640000  0.02290000  1.0
  C  C289  1  0.31010000  0.53000000  0.99220000  1.0
  C  C290  1  0.28870000  0.52680000  0.93340000  1.0
  C  C291  1  0.31870000  0.48030000  0.90610000  1.0
  C  C292  1  0.03780000  0.74790000  0.90510000  1.0
  C  C293  1  0.09550000  0.70440000  0.93290000  1.0
  C  C294  1  0.13470000  0.70630000  0.99010000  1.0
  C  C295  1  0.11440000  0.75430000  0.01890000  1.0
  C  C296  1  0.05620000  0.79620000  0.98700000  1.0
  C  C297  1  0.19690000  0.66170000  0.02290000  1.0
  C  C298  1  0.28190000  0.62560000  0.10730000  1.0
  C  C299  1  0.28100000  0.57900000  0.02290000  1.0
  C  C300  1  0.53580000  0.82440000  0.81660000  1.0
  C  C301  1  0.51080000  0.82330000  0.75810000  1.0
  C  C302  1  0.51240000  0.87180000  0.72730000  1.0
  C  C303  1  0.54180000  0.91740000  0.75730000  1.0
  C  C304  1  0.56870000  0.91460000  0.81740000  1.0
  C  C305  1  0.59450000  0.05860000  0.55040000  1.0
  C  C306  1  0.56870000  0.01210000  0.57940000  1.0
  C  C307  1  0.51270000  0.97170000  0.54910000  1.0
  C  C308  1  0.47860000  0.97580000  0.49110000  1.0
  C  C309  1  0.50270000  0.02500000  0.46580000  1.0
  C  C310  1  0.24060000  0.74960000  0.46050000  1.0
  C  C311  1  0.30200000  0.79450000  0.48830000  1.0
  C  C312  1  0.33510000  0.79330000  0.54900000  1.0
  C  C313  1  0.31050000  0.74650000  0.57740000  1.0
  C  C314  1  0.25160000  0.70480000  0.54490000  1.0
  C  C315  1  0.39720000  0.83820000  0.57950000  1.0
  C  C316  1  0.48530000  0.87320000  0.66390000  1.0
  C  C317  1  0.48310000  0.91920000  0.58030000  1.0
  C  C318  1  0.03580000  0.32440000  0.81660000  1.0
  C  C319  1  0.01080000  0.32330000  0.75810000  1.0
  C  C320  1  0.01240000  0.37180000  0.72730000  1.0
  C  C321  1  0.04180000  0.41740000  0.75730000  1.0
  C  C322  1  0.06870000  0.41460000  0.81740000  1.0
  C  C323  1  0.09450000  0.55860000  0.55040000  1.0
  C  C324  1  0.06870000  0.51210000  0.57940000  1.0
  C  C325  1  0.01270000  0.47170000  0.54910000  1.0
  C  C326  1  0.97860000  0.47580000  0.49110000  1.0
  C  C327  1  0.00270000  0.52500000  0.46580000  1.0
  C  C328  1  0.74060000  0.24960000  0.46050000  1.0
  C  C329  1  0.80200000  0.29450000  0.48830000  1.0
  C  C330  1  0.83510000  0.29330000  0.54900000  1.0
  C  C331  1  0.81050000  0.24650000  0.57740000  1.0
  C  C332  1  0.75160000  0.20480000  0.54490000  1.0
  C  C333  1  0.89720000  0.33820000  0.57950000  1.0
  C  C334  1  0.98530000  0.37320000  0.66390000  1.0
  C  C335  1  0.98310000  0.41920000  0.58030000  1.0
  C  C336  1  0.53580000  0.17560000  0.31660000  1.0
  C  C337  1  0.51080000  0.17670000  0.25810000  1.0
  C  C338  1  0.51240000  0.12820000  0.22730000  1.0
  C  C339  1  0.54180000  0.08260000  0.25730000  1.0
  C  C340  1  0.56870000  0.08540000  0.31740000  1.0
  C  C341  1  0.59450000  0.94140000  0.05040000  1.0
  C  C342  1  0.56870000  0.98790000  0.07940000  1.0
  C  C343  1  0.51270000  0.02830000  0.04910000  1.0
  C  C344  1  0.47860000  0.02420000  0.99110000  1.0
  C  C345  1  0.50270000  0.97500000  0.96580000  1.0
  C  C346  1  0.24060000  0.25040000  0.96050000  1.0
  C  C347  1  0.30200000  0.20550000  0.98830000  1.0
  C  C348  1  0.33510000  0.20670000  0.04900000  1.0
  C  C349  1  0.31050000  0.25350000  0.07740000  1.0
  C  C350  1  0.25160000  0.29520000  0.04490000  1.0
  C  C351  1  0.39720000  0.16180000  0.07950000  1.0
  C  C352  1  0.48530000  0.12680000  0.16390000  1.0
  C  C353  1  0.48310000  0.08080000  0.08030000  1.0
  C  C354  1  0.03580000  0.67560000  0.31660000  1.0
  C  C355  1  0.01080000  0.67670000  0.25810000  1.0
  C  C356  1  0.01240000  0.62820000  0.22730000  1.0
  C  C357  1  0.04180000  0.58260000  0.25730000  1.0
  C  C358  1  0.06870000  0.58540000  0.31740000  1.0
  C  C359  1  0.09450000  0.44140000  0.05040000  1.0
  C  C360  1  0.06870000  0.48790000  0.07940000  1.0
  C  C361  1  0.01270000  0.52830000  0.04910000  1.0
  C  C362  1  0.97860000  0.52420000  0.99110000  1.0
  C  C363  1  0.00270000  0.47500000  0.96580000  1.0
  C  C364  1  0.74060000  0.75040000  0.96050000  1.0
  C  C365  1  0.80200000  0.70550000  0.98830000  1.0
  C  C366  1  0.83510000  0.70670000  0.04900000  1.0
  C  C367  1  0.81050000  0.75350000  0.07740000  1.0
  C  C368  1  0.75160000  0.79520000  0.04490000  1.0
  C  C369  1  0.89720000  0.66180000  0.07950000  1.0
  C  C370  1  0.98530000  0.62680000  0.16390000  1.0
  C  C371  1  0.98310000  0.58080000  0.08030000  1.0
  N  N372  1  0.21180000  0.86470000  0.81090000  1.0
  N  N373  1  0.18400000  0.05580000  0.45330000  1.0
  N  N374  1  0.86190000  0.69450000  0.45620000  1.0
  N  N375  1  0.06160000  0.82380000  0.60070000  1.0
  N  N376  1  0.14850000  0.91110000  0.59890000  1.0
  N  N377  1  0.05530000  0.87270000  0.51280000  1.0
  N  N378  1  0.71180000  0.36470000  0.81090000  1.0
  N  N379  1  0.68400000  0.55580000  0.45330000  1.0
  N  N380  1  0.36190000  0.19450000  0.45620000  1.0
  N  N381  1  0.56160000  0.32380000  0.60070000  1.0
  N  N382  1  0.64850000  0.41110000  0.59890000  1.0
  N  N383  1  0.55530000  0.37270000  0.51280000  1.0
  N  N384  1  0.21180000  0.13530000  0.31090000  1.0
  N  N385  1  0.18400000  0.94420000  0.95330000  1.0
  N  N386  1  0.86190000  0.30550000  0.95620000  1.0
  N  N387  1  0.06160000  0.17620000  0.10070000  1.0
  N  N388  1  0.14850000  0.08890000  0.09890000  1.0
  N  N389  1  0.05530000  0.12730000  0.01280000  1.0
  N  N390  1  0.71180000  0.63530000  0.31090000  1.0
  N  N391  1  0.68400000  0.44420000  0.95330000  1.0
  N  N392  1  0.36190000  0.80550000  0.95620000  1.0
  N  N393  1  0.56160000  0.67620000  0.10070000  1.0
  N  N394  1  0.64850000  0.58890000  0.09890000  1.0
  N  N395  1  0.55530000  0.62730000  0.01280000  1.0
  N  N396  1  0.86920000  0.86480000  0.79030000  1.0
  N  N397  1  0.86280000  0.06380000  0.43510000  1.0
  N  N398  1  0.51890000  0.70650000  0.43240000  1.0
  N  N399  1  0.72180000  0.83320000  0.57920000  1.0
  N  N400  1  0.81400000  0.91930000  0.58030000  1.0
  N  N401  1  0.72510000  0.88150000  0.49180000  1.0
  N  N402  1  0.36920000  0.36480000  0.79030000  1.0
  N  N403  1  0.36280000  0.56380000  0.43510000  1.0
  N  N404  1  0.01890000  0.20650000  0.43240000  1.0
  N  N405  1  0.22180000  0.33320000  0.57920000  1.0
  N  N406  1  0.31400000  0.41930000  0.58030000  1.0
  N  N407  1  0.22510000  0.38150000  0.49180000  1.0
  N  N408  1  0.86920000  0.13520000  0.29030000  1.0
  N  N409  1  0.86280000  0.93620000  0.93510000  1.0
  N  N410  1  0.51890000  0.29350000  0.93240000  1.0
  N  N411  1  0.72180000  0.16680000  0.07920000  1.0
  N  N412  1  0.81400000  0.08070000  0.08030000  1.0
  N  N413  1  0.72510000  0.11850000  0.99180000  1.0
  N  N414  1  0.36920000  0.63520000  0.29030000  1.0
  N  N415  1  0.36280000  0.43620000  0.93510000  1.0
  N  N416  1  0.01890000  0.79350000  0.93240000  1.0
  N  N417  1  0.22180000  0.66680000  0.07920000  1.0
  N  N418  1  0.31400000  0.58070000  0.08030000  1.0
  N  N419  1  0.22510000  0.61850000  0.99180000  1.0
  N  N420  1  0.56280000  0.86810000  0.84700000  1.0
  N  N421  1  0.56070000  0.06540000  0.49520000  1.0
  N  N422  1  0.22100000  0.70500000  0.48860000  1.0
  N  N423  1  0.42530000  0.83230000  0.63610000  1.0
  N  N424  1  0.51880000  0.91710000  0.63670000  1.0
  N  N425  1  0.42250000  0.88140000  0.54860000  1.0
  N  N426  1  0.06280000  0.36810000  0.84700000  1.0
  N  N427  1  0.06070000  0.56540000  0.49520000  1.0
  N  N428  1  0.72100000  0.20500000  0.48860000  1.0
  N  N429  1  0.92530000  0.33230000  0.63610000  1.0
  N  N430  1  0.01880000  0.41710000  0.63670000  1.0
  N  N431  1  0.92250000  0.38140000  0.54860000  1.0
  N  N432  1  0.56280000  0.13190000  0.34700000  1.0
  N  N433  1  0.56070000  0.93460000  0.99520000  1.0
  N  N434  1  0.22100000  0.29500000  0.98860000  1.0
  N  N435  1  0.42530000  0.16770000  0.13610000  1.0
  N  N436  1  0.51880000  0.08290000  0.13670000  1.0
  N  N437  1  0.42250000  0.11860000  0.04860000  1.0
  N  N438  1  0.06280000  0.63190000  0.34700000  1.0
  N  N439  1  0.06070000  0.43460000  0.99520000  1.0
  N  N440  1  0.72100000  0.79500000  0.98860000  1.0
  N  N441  1  0.92530000  0.66770000  0.13610000  1.0
  N  N442  1  0.01880000  0.58290000  0.13670000  1.0
  N  N443  1  0.92250000  0.61860000  0.04860000  1.0
