# generated using pymatgen
data_ZnH2(CO2)2
_symmetry_space_group_name_H-M   'P 1'
_cell_length_a   9.77440000
_cell_length_b   11.20650000
_cell_length_c   14.72010000
_cell_angle_alpha   91.05980000
_cell_angle_beta   90.00000000
_cell_angle_gamma   90.00000000
_symmetry_Int_Tables_number   1
_chemical_formula_structural   ZnH2(CO2)2
_chemical_formula_sum   'Zn12 H24 C24 O48'
_cell_volume   1612.11702651
_cell_formula_units_Z   12
loop_
 _symmetry_equiv_pos_site_id
 _symmetry_equiv_pos_as_xyz
  1  'x, y, z'
loop_
 _atom_site_type_symbol
 _atom_site_label
 _atom_site_symmetry_multiplicity
 _atom_site_fract_x
 _atom_site_fract_y
 _atom_site_fract_z
 _atom_site_occupancy
  Zn  Zn0  1  0.92099000  0.75574000  0.13235000  1.0
  Zn  Zn1  1  0.10828000  0.73768000  0.31052000  1.0
  Zn  Zn2  1  0.42099000  0.74426000  0.36765000  1.0
  Zn  Zn3  1  0.60828000  0.76232000  0.18948000  1.0
  Zn  Zn4  1  0.07901000  0.24426000  0.86765000  1.0
  Zn  Zn5  1  0.89172000  0.26232000  0.68948000  1.0
  Zn  Zn6  1  0.57901000  0.25574000  0.63235000  1.0
  Zn  Zn7  1  0.39172000  0.23768000  0.81052000  1.0
  Zn  Zn8  1  0.00000000  0.50000000  0.00000000  1.0
  Zn  Zn9  1  0.50000000  0.00000000  0.50000000  1.0
  Zn  Zn10  1  0.00000000  0.00000000  0.00000000  1.0
  Zn  Zn11  1  0.50000000  0.50000000  0.50000000  1.0
  H  H12  1  0.75750000  0.86650000  0.36470000  1.0
  H  H13  1  0.03890000  0.47060000  0.26260000  1.0
  H  H14  1  0.61530000  0.55590000  0.04780000  1.0
  H  H15  1  0.19780000  0.97980000  0.22700000  1.0
  H  H16  1  0.16240000  0.69520000  0.93110000  1.0
  H  H17  1  0.70100000  0.98850000  0.00790000  1.0
  H  H18  1  0.25750000  0.63350000  0.13530000  1.0
  H  H19  1  0.53890000  0.02940000  0.23740000  1.0
  H  H20  1  0.11530000  0.94410000  0.45220000  1.0
  H  H21  1  0.69780000  0.52020000  0.27300000  1.0
  H  H22  1  0.66240000  0.80480000  0.56890000  1.0
  H  H23  1  0.20100000  0.51150000  0.49210000  1.0
  H  H24  1  0.24250000  0.13350000  0.63530000  1.0
  H  H25  1  0.96110000  0.52940000  0.73740000  1.0
  H  H26  1  0.38470000  0.44410000  0.95220000  1.0
  H  H27  1  0.80220000  0.02020000  0.77300000  1.0
  H  H28  1  0.83760000  0.30480000  0.06890000  1.0
  H  H29  1  0.29900000  0.01150000  0.99210000  1.0
  H  H30  1  0.74250000  0.36650000  0.86470000  1.0
  H  H31  1  0.46110000  0.97060000  0.76260000  1.0
  H  H32  1  0.88470000  0.05590000  0.54780000  1.0
  H  H33  1  0.30220000  0.47980000  0.72700000  1.0
  H  H34  1  0.33760000  0.19520000  0.43110000  1.0
  H  H35  1  0.79900000  0.48850000  0.50790000  1.0
  C  C36  1  0.82870000  0.83330000  0.32830000  1.0
  C  C37  1  0.01800000  0.51380000  0.20940000  1.0
  C  C38  1  0.71010000  0.57270000  0.05450000  1.0
  C  C39  1  0.13380000  0.95270000  0.18270000  1.0
  C  C40  1  0.10610000  0.74200000  0.97050000  1.0
  C  C41  1  0.71920000  0.93010000  0.05230000  1.0
  C  C42  1  0.32870000  0.66666667  0.17170000  1.0
  C  C43  1  0.51800000  0.98620000  0.29060000  1.0
  C  C44  1  0.21010000  0.92730000  0.44550000  1.0
  C  C45  1  0.63380000  0.54730000  0.31730000  1.0
  C  C46  1  0.60610000  0.75800000  0.52950000  1.0
  C  C47  1  0.21920000  0.56990000  0.44770000  1.0
  C  C48  1  0.17130000  0.16670000  0.67170000  1.0
  C  C49  1  0.98200000  0.48620000  0.79060000  1.0
  C  C50  1  0.28990000  0.42730000  0.94550000  1.0
  C  C51  1  0.86620000  0.04730000  0.81730000  1.0
  C  C52  1  0.89390000  0.25800000  0.02950000  1.0
  C  C53  1  0.28080000  0.06990000  0.94770000  1.0
  C  C54  1  0.67130000  0.33333333  0.82830000  1.0
  C  C55  1  0.48200000  0.01380000  0.70940000  1.0
  C  C56  1  0.78990000  0.07270000  0.55450000  1.0
  C  C57  1  0.36620000  0.45270000  0.68270000  1.0
  C  C58  1  0.39390000  0.24200000  0.47050000  1.0
  C  C59  1  0.78080000  0.43010000  0.55230000  1.0
  O  O60  1  0.80100000  0.81216000  0.24520000  1.0
  O  O61  1  0.94017000  0.81490000  0.36670000  1.0
  O  O62  1  0.00515000  0.62662000  0.21830000  1.0
  O  O63  1  0.00571000  0.45544000  0.13754000  1.0
  O  O64  1  0.74300000  0.65239000  0.11424000  1.0
  O  O65  1  0.78892000  0.51565000  0.00495000  1.0
  O  O66  1  0.08479000  0.84842000  0.19325000  1.0
  O  O67  1  0.10713000  0.02202000  0.12102000  1.0
  O  O68  1  0.02672000  0.68498000  0.02416000  1.0
  O  O69  1  0.11646000  0.85063000  0.96514000  1.0
  O  O70  1  0.84434000  0.89723000  0.06095000  1.0
  O  O71  1  0.61969000  0.89336000  0.09599000  1.0
  O  O72  1  0.30100000  0.68784000  0.25480000  1.0
  O  O73  1  0.44017000  0.68510000  0.13330000  1.0
  O  O74  1  0.50515000  0.87338000  0.28170000  1.0
  O  O75  1  0.50571000  0.04456000  0.36246000  1.0
  O  O76  1  0.24300000  0.84761000  0.38576000  1.0
  O  O77  1  0.28892000  0.98435000  0.49505000  1.0
  O  O78  1  0.58479000  0.65158000  0.30675000  1.0
  O  O79  1  0.60713000  0.47798000  0.37898000  1.0
  O  O80  1  0.52672000  0.81502000  0.47584000  1.0
  O  O81  1  0.61646000  0.64937000  0.53486000  1.0
  O  O82  1  0.34434000  0.60277000  0.43905000  1.0
  O  O83  1  0.11969000  0.60664000  0.40401000  1.0
  O  O84  1  0.19900000  0.18784000  0.75480000  1.0
  O  O85  1  0.05983000  0.18510000  0.63330000  1.0
  O  O86  1  0.99485000  0.37338000  0.78170000  1.0
  O  O87  1  0.99429000  0.54456000  0.86246000  1.0
  O  O88  1  0.25700000  0.34761000  0.88576000  1.0
  O  O89  1  0.21108000  0.48435000  0.99505000  1.0
  O  O90  1  0.91521000  0.15158000  0.80675000  1.0
  O  O91  1  0.89287000  0.97798000  0.87898000  1.0
  O  O92  1  0.97328000  0.31502000  0.97584000  1.0
  O  O93  1  0.88354000  0.14937000  0.03486000  1.0
  O  O94  1  0.15566000  0.10277000  0.93905000  1.0
  O  O95  1  0.38031000  0.10664000  0.90401000  1.0
  O  O96  1  0.69900000  0.31216000  0.74520000  1.0
  O  O97  1  0.55983000  0.31490000  0.86670000  1.0
  O  O98  1  0.49485000  0.12662000  0.71830000  1.0
  O  O99  1  0.49429000  0.95544000  0.63754000  1.0
  O  O100  1  0.75700000  0.15239000  0.61424000  1.0
  O  O101  1  0.71108000  0.01565000  0.50495000  1.0
  O  O102  1  0.41521000  0.34842000  0.69325000  1.0
  O  O103  1  0.39287000  0.52202000  0.62102000  1.0
  O  O104  1  0.47328000  0.18498000  0.52416000  1.0
  O  O105  1  0.38354000  0.35063000  0.46514000  1.0
  O  O106  1  0.65566000  0.39723000  0.56095000  1.0
  O  O107  1  0.88031000  0.39336000  0.59599000  1.0
