# generated using pymatgen
data_CdH8C6N6Cl
_symmetry_space_group_name_H-M   'P 1'
_cell_length_a   7.62000000
_cell_length_b   20.96300000
_cell_length_c   9.87600000
_cell_angle_alpha   90.00000000
_cell_angle_beta   90.00000000
_cell_angle_gamma   90.00000000
_symmetry_Int_Tables_number   1
_chemical_formula_structural   CdH8C6N6Cl
_chemical_formula_sum   'Cd4 H32 C24 N24 Cl4'
_cell_volume   1577.57308056
_cell_formula_units_Z   4
loop_
 _symmetry_equiv_pos_site_id
 _symmetry_equiv_pos_as_xyz
  1  'x, y, z'
loop_
 _atom_site_type_symbol
 _atom_site_label
 _atom_site_symmetry_multiplicity
 _atom_site_fract_x
 _atom_site_fract_y
 _atom_site_fract_z
 _atom_site_occupancy
  Cd  Cd0  1  0.75000000  0.25000000  0.25000000  1.0
  Cd  Cd1  1  0.25000000  0.25000000  0.25000000  1.0
  Cd  Cd2  1  0.25000000  0.75000000  0.75000000  1.0
  Cd  Cd3  1  0.75000000  0.75000000  0.75000000  1.0
  H  H4  1  0.75660000  0.10900000  0.05320000  1.0
  H  H5  1  0.39680000  0.02440000  0.89330000  1.0
  H  H6  1  0.25660000  0.60900000  0.55320000  1.0
  H  H7  1  0.89680000  0.52440000  0.39330000  1.0
  H  H8  1  0.24340000  0.39100000  0.05320000  1.0
  H  H9  1  0.60320000  0.47560000  0.89330000  1.0
  H  H10  1  0.74340000  0.89100000  0.55320000  1.0
  H  H11  1  0.10320000  0.97560000  0.39330000  1.0
  H  H12  1  0.24340000  0.60900000  0.94680000  1.0
  H  H13  1  0.60320000  0.52440000  0.10670000  1.0
  H  H14  1  0.74340000  0.10900000  0.44680000  1.0
  H  H15  1  0.10320000  0.02440000  0.60670000  1.0
  H  H16  1  0.75660000  0.89100000  0.94680000  1.0
  H  H17  1  0.39680000  0.97560000  0.10670000  1.0
  H  H18  1  0.25660000  0.39100000  0.44680000  1.0
  H  H19  1  0.89680000  0.47560000  0.60670000  1.0
  H  H20  1  0.24340000  0.89100000  0.94680000  1.0
  H  H21  1  0.60320000  0.97560000  0.10670000  1.0
  H  H22  1  0.74340000  0.39100000  0.44680000  1.0
  H  H23  1  0.10320000  0.47560000  0.60670000  1.0
  H  H24  1  0.75660000  0.60900000  0.94680000  1.0
  H  H25  1  0.39680000  0.52440000  0.10670000  1.0
  H  H26  1  0.25660000  0.10900000  0.44680000  1.0
  H  H27  1  0.89680000  0.02440000  0.60670000  1.0
  H  H28  1  0.75660000  0.39100000  0.05320000  1.0
  H  H29  1  0.39680000  0.47560000  0.89330000  1.0
  H  H30  1  0.25660000  0.89100000  0.55320000  1.0
  H  H31  1  0.89680000  0.97560000  0.39330000  1.0
  H  H32  1  0.24340000  0.10900000  0.05320000  1.0
  H  H33  1  0.60320000  0.02440000  0.89330000  1.0
  H  H34  1  0.74340000  0.60900000  0.55320000  1.0
  H  H35  1  0.10320000  0.52440000  0.39330000  1.0
  C  C36  1  0.64070000  0.12080000  0.06910000  1.0
  C  C37  1  0.14070000  0.62080000  0.56910000  1.0
  C  C38  1  0.35930000  0.37920000  0.06910000  1.0
  C  C39  1  0.85930000  0.87920000  0.56910000  1.0
  C  C40  1  0.35930000  0.62080000  0.93090000  1.0
  C  C41  1  0.85930000  0.12080000  0.43090000  1.0
  C  C42  1  0.64070000  0.87920000  0.93090000  1.0
  C  C43  1  0.14070000  0.37920000  0.43090000  1.0
  C  C44  1  0.35930000  0.87920000  0.93090000  1.0
  C  C45  1  0.85930000  0.37920000  0.43090000  1.0
  C  C46  1  0.64070000  0.62080000  0.93090000  1.0
  C  C47  1  0.14070000  0.12080000  0.43090000  1.0
  C  C48  1  0.64070000  0.37920000  0.06910000  1.0
  C  C49  1  0.14070000  0.87920000  0.56910000  1.0
  C  C50  1  0.35930000  0.12080000  0.06910000  1.0
  C  C51  1  0.85930000  0.62080000  0.56910000  1.0
  C  C52  1  0.50000000  0.02690000  0.95050000  1.0
  C  C53  1  0.00000000  0.52690000  0.45050000  1.0
  C  C54  1  0.50000000  0.47310000  0.95050000  1.0
  C  C55  1  0.00000000  0.97310000  0.45050000  1.0
  C  C56  1  0.50000000  0.52690000  0.04950000  1.0
  C  C57  1  0.00000000  0.02690000  0.54950000  1.0
  C  C58  1  0.50000000  0.97310000  0.04950000  1.0
  C  C59  1  0.00000000  0.47310000  0.54950000  1.0
  N  N60  1  0.59030000  0.17130000  0.13620000  1.0
  N  N61  1  0.09030000  0.67130000  0.63620000  1.0
  N  N62  1  0.40970000  0.32870000  0.13620000  1.0
  N  N63  1  0.90970000  0.82870000  0.63620000  1.0
  N  N64  1  0.40970000  0.67130000  0.86380000  1.0
  N  N65  1  0.90970000  0.17130000  0.36380000  1.0
  N  N66  1  0.59030000  0.82870000  0.86380000  1.0
  N  N67  1  0.09030000  0.32870000  0.36380000  1.0
  N  N68  1  0.40970000  0.82870000  0.86380000  1.0
  N  N69  1  0.90970000  0.32870000  0.36380000  1.0
  N  N70  1  0.59030000  0.67130000  0.86380000  1.0
  N  N71  1  0.09030000  0.17130000  0.36380000  1.0
  N  N72  1  0.59030000  0.32870000  0.13620000  1.0
  N  N73  1  0.09030000  0.82870000  0.63620000  1.0
  N  N74  1  0.40970000  0.17130000  0.13620000  1.0
  N  N75  1  0.90970000  0.67130000  0.63620000  1.0
  N  N76  1  0.50000000  0.08890000  0.02750000  1.0
  N  N77  1  0.00000000  0.58890000  0.52750000  1.0
  N  N78  1  0.50000000  0.41110000  0.02750000  1.0
  N  N79  1  0.00000000  0.91110000  0.52750000  1.0
  N  N80  1  0.50000000  0.58890000  0.97250000  1.0
  N  N81  1  0.00000000  0.08890000  0.47250000  1.0
  N  N82  1  0.50000000  0.91110000  0.97250000  1.0
  N  N83  1  0.00000000  0.41110000  0.47250000  1.0
  Cl  Cl84  1  0.00000000  0.25000000  0.07020000  1.0
  Cl  Cl85  1  0.50000000  0.75000000  0.57020000  1.0
  Cl  Cl86  1  0.00000000  0.75000000  0.92980000  1.0
  Cl  Cl87  1  0.50000000  0.25000000  0.42980000  1.0
