# generated using pymatgen
data_Zn4H12C24O13
_symmetry_space_group_name_H-M   'P 1'
_cell_length_a   20.05530000
_cell_length_b   11.14620000
_cell_length_c   19.53540000
_cell_angle_alpha   90.00000000
_cell_angle_beta   108.35200000
_cell_angle_gamma   90.00000000
_symmetry_Int_Tables_number   1
_chemical_formula_structural   Zn4H12C24O13
_chemical_formula_sum   'Zn16 H48 C96 O52'
_cell_volume   4144.84822219
_cell_formula_units_Z   4
loop_
 _symmetry_equiv_pos_site_id
 _symmetry_equiv_pos_as_xyz
  1  'x, y, z'
loop_
 _atom_site_type_symbol
 _atom_site_label
 _atom_site_symmetry_multiplicity
 _atom_site_fract_x
 _atom_site_fract_y
 _atom_site_fract_z
 _atom_site_occupancy
  Zn  Zn0  1  0.41162000  0.70846000  0.23228000  1.0
  Zn  Zn1  1  0.27567000  0.71259000  0.09805000  1.0
  Zn  Zn2  1  0.27852000  0.56653000  0.23845000  1.0
  Zn  Zn3  1  0.27547000  0.85268000  0.23969000  1.0
  Zn  Zn4  1  0.91162000  0.20846000  0.23228000  1.0
  Zn  Zn5  1  0.77567000  0.21259000  0.09805000  1.0
  Zn  Zn6  1  0.77852000  0.06653000  0.23845000  1.0
  Zn  Zn7  1  0.77547000  0.35268000  0.23969000  1.0
  Zn  Zn8  1  0.41162000  0.29154000  0.73228000  1.0
  Zn  Zn9  1  0.27567000  0.28741000  0.59805000  1.0
  Zn  Zn10  1  0.27852000  0.43347000  0.73845000  1.0
  Zn  Zn11  1  0.27547000  0.14732000  0.73969000  1.0
  Zn  Zn12  1  0.91162000  0.79154000  0.73228000  1.0
  Zn  Zn13  1  0.77567000  0.78741000  0.59805000  1.0
  Zn  Zn14  1  0.77852000  0.93347000  0.73845000  1.0
  Zn  Zn15  1  0.77547000  0.64732000  0.73969000  1.0
  H  H16  1  0.36820000  0.43490000  0.45230000  1.0
  H  H17  1  0.53670000  0.46980000  0.62800000  1.0
  H  H18  1  0.59570000  0.57070000  0.56190000  1.0
  H  H19  1  0.53920000  0.60590000  0.43800000  1.0
  H  H20  1  0.26340000  0.20870000  0.15680000  1.0
  H  H21  1  0.20910000  0.02700000  0.97000000  1.0
  H  H22  1  0.19380000  0.20830000  0.90770000  1.0
  H  H23  1  0.21820000  0.38810000  0.97030000  1.0
  H  H24  1  0.07000000  0.49660000  0.24020000  1.0
  H  H25  1  0.88870000  0.66550000  0.22450000  1.0
  H  H26  1  0.93930000  0.84710000  0.21090000  1.0
  H  H27  1  0.05520000  0.85350000  0.21770000  1.0
  H  H28  1  0.86820000  0.93490000  0.45230000  1.0
  H  H29  1  0.03670000  0.96980000  0.62800000  1.0
  H  H30  1  0.09570000  0.07070000  0.56190000  1.0
  H  H31  1  0.03920000  0.10590000  0.43800000  1.0
  H  H32  1  0.76340000  0.70870000  0.15680000  1.0
  H  H33  1  0.70910000  0.52700000  0.97000000  1.0
  H  H34  1  0.69380000  0.70830000  0.90770000  1.0
  H  H35  1  0.71820000  0.88810000  0.97030000  1.0
  H  H36  1  0.57000000  0.99660000  0.24020000  1.0
  H  H37  1  0.38870000  0.16550000  0.22450000  1.0
  H  H38  1  0.43930000  0.34710000  0.21090000  1.0
  H  H39  1  0.55520000  0.35350000  0.21770000  1.0
  H  H40  1  0.36820000  0.56510000  0.95230000  1.0
  H  H41  1  0.53670000  0.53020000  0.12800000  1.0
  H  H42  1  0.59570000  0.42930000  0.06190000  1.0
  H  H43  1  0.53920000  0.39410000  0.93800000  1.0
  H  H44  1  0.26340000  0.79130000  0.65680000  1.0
  H  H45  1  0.20910000  0.97300000  0.47000000  1.0
  H  H46  1  0.19380000  0.79170000  0.40770000  1.0
  H  H47  1  0.21820000  0.61190000  0.47030000  1.0
  H  H48  1  0.07000000  0.50340000  0.74020000  1.0
  H  H49  1  0.88870000  0.33450000  0.72450000  1.0
  H  H50  1  0.93930000  0.15290000  0.71090000  1.0
  H  H51  1  0.05520000  0.14650000  0.71770000  1.0
  H  H52  1  0.86820000  0.06510000  0.95230000  1.0
  H  H53  1  0.03670000  0.03020000  0.12800000  1.0
  H  H54  1  0.09570000  0.92930000  0.06190000  1.0
  H  H55  1  0.03920000  0.89410000  0.93800000  1.0
  H  H56  1  0.76340000  0.29130000  0.65680000  1.0
  H  H57  1  0.70910000  0.47300000  0.47000000  1.0
  H  H58  1  0.69380000  0.29170000  0.40770000  1.0
  H  H59  1  0.71820000  0.11190000  0.47030000  1.0
  H  H60  1  0.57000000  0.00340000  0.74020000  1.0
  H  H61  1  0.38870000  0.83450000  0.72450000  1.0
  H  H62  1  0.43930000  0.65290000  0.71090000  1.0
  H  H63  1  0.55520000  0.64650000  0.71770000  1.0
  C  C64  1  0.41080000  0.55740000  0.35680000  1.0
  C  C65  1  0.40880000  0.37640000  0.59150000  1.0
  C  C66  1  0.44840000  0.52530000  0.43380000  1.0
  C  C67  1  0.41360000  0.46280000  0.47440000  1.0
  C  C68  1  0.44630000  0.44160000  0.54750000  1.0
  C  C69  1  0.51450000  0.48330000  0.57910000  1.0
  C  C70  1  0.55000000  0.54390000  0.53990000  1.0
  C  C71  1  0.51590000  0.56520000  0.46530000  1.0
  C  C72  1  0.25800000  0.43260000  0.11030000  1.0
  C  C73  1  0.25150000  0.98460000  0.11120000  1.0
  C  C74  1  0.24290000  0.31630000  0.06970000  1.0
  C  C75  1  0.25020000  0.20850000  0.10670000  1.0
  C  C76  1  0.23780000  0.10010000  0.06950000  1.0
  C  C77  1  0.21720000  0.09930000  0.99510000  1.0
  C  C78  1  0.20880000  0.20810000  0.95780000  1.0
  C  C79  1  0.22260000  0.31610000  0.99540000  1.0
  C  C80  1  0.15180000  0.68580000  0.23980000  1.0
  C  C81  1  0.93880000  0.44510000  0.24010000  1.0
  C  C82  1  0.07520000  0.67780000  0.23270000  1.0
  C  C83  1  0.04390000  0.56680000  0.23570000  1.0
  C  C84  1  0.97300000  0.56190000  0.23180000  1.0
  C  C85  1  0.93520000  0.66780000  0.22480000  1.0
  C  C86  1  0.96570000  0.77690000  0.21810000  1.0
  C  C87  1  0.03480000  0.78020000  0.22220000  1.0
  C  C88  1  0.91080000  0.05740000  0.35680000  1.0
  C  C89  1  0.90880000  0.87640000  0.59150000  1.0
  C  C90  1  0.94840000  0.02530000  0.43380000  1.0
  C  C91  1  0.91360000  0.96280000  0.47440000  1.0
  C  C92  1  0.94630000  0.94160000  0.54750000  1.0
  C  C93  1  0.01450000  0.98330000  0.57910000  1.0
  C  C94  1  0.05000000  0.04390000  0.53990000  1.0
  C  C95  1  0.01590000  0.06520000  0.46530000  1.0
  C  C96  1  0.75800000  0.93260000  0.11030000  1.0
  C  C97  1  0.75150000  0.48460000  0.11120000  1.0
  C  C98  1  0.74290000  0.81630000  0.06970000  1.0
  C  C99  1  0.75020000  0.70850000  0.10670000  1.0
  C  C100  1  0.73780000  0.60010000  0.06950000  1.0
  C  C101  1  0.71720000  0.59930000  0.99510000  1.0
  C  C102  1  0.70880000  0.70810000  0.95780000  1.0
  C  C103  1  0.72260000  0.81610000  0.99540000  1.0
  C  C104  1  0.65180000  0.18580000  0.23980000  1.0
  C  C105  1  0.43880000  0.94510000  0.24010000  1.0
  C  C106  1  0.57520000  0.17780000  0.23270000  1.0
  C  C107  1  0.54390000  0.06680000  0.23570000  1.0
  C  C108  1  0.47300000  0.06190000  0.23180000  1.0
  C  C109  1  0.43520000  0.16780000  0.22480000  1.0
  C  C110  1  0.46570000  0.27690000  0.21810000  1.0
  C  C111  1  0.53480000  0.28020000  0.22220000  1.0
  C  C112  1  0.41080000  0.44260000  0.85680000  1.0
  C  C113  1  0.40880000  0.62360000  0.09150000  1.0
  C  C114  1  0.44840000  0.47470000  0.93380000  1.0
  C  C115  1  0.41360000  0.53720000  0.97440000  1.0
  C  C116  1  0.44630000  0.55840000  0.04750000  1.0
  C  C117  1  0.51450000  0.51670000  0.07910000  1.0
  C  C118  1  0.55000000  0.45610000  0.03990000  1.0
  C  C119  1  0.51590000  0.43480000  0.96530000  1.0
  C  C120  1  0.25800000  0.56740000  0.61030000  1.0
  C  C121  1  0.25150000  0.01540000  0.61120000  1.0
  C  C122  1  0.24290000  0.68370000  0.56970000  1.0
  C  C123  1  0.25020000  0.79150000  0.60670000  1.0
  C  C124  1  0.23780000  0.89990000  0.56950000  1.0
  C  C125  1  0.21720000  0.90070000  0.49510000  1.0
  C  C126  1  0.20880000  0.79190000  0.45780000  1.0
  C  C127  1  0.22260000  0.68390000  0.49540000  1.0
  C  C128  1  0.15180000  0.31420000  0.73980000  1.0
  C  C129  1  0.93880000  0.55490000  0.74010000  1.0
  C  C130  1  0.07520000  0.32220000  0.73270000  1.0
  C  C131  1  0.04390000  0.43320000  0.73570000  1.0
  C  C132  1  0.97300000  0.43810000  0.73180000  1.0
  C  C133  1  0.93520000  0.33220000  0.72480000  1.0
  C  C134  1  0.96570000  0.22310000  0.71810000  1.0
  C  C135  1  0.03480000  0.21980000  0.72220000  1.0
  C  C136  1  0.91080000  0.94260000  0.85680000  1.0
  C  C137  1  0.90880000  0.12360000  0.09150000  1.0
  C  C138  1  0.94840000  0.97470000  0.93380000  1.0
  C  C139  1  0.91360000  0.03720000  0.97440000  1.0
  C  C140  1  0.94630000  0.05840000  0.04750000  1.0
  C  C141  1  0.01450000  0.01670000  0.07910000  1.0
  C  C142  1  0.05000000  0.95610000  0.03990000  1.0
  C  C143  1  0.01590000  0.93480000  0.96530000  1.0
  C  C144  1  0.75800000  0.06740000  0.61030000  1.0
  C  C145  1  0.75150000  0.51540000  0.61120000  1.0
  C  C146  1  0.74290000  0.18370000  0.56970000  1.0
  C  C147  1  0.75020000  0.29150000  0.60670000  1.0
  C  C148  1  0.73780000  0.39990000  0.56950000  1.0
  C  C149  1  0.71720000  0.40070000  0.49510000  1.0
  C  C150  1  0.70880000  0.29190000  0.45780000  1.0
  C  C151  1  0.72260000  0.18390000  0.49540000  1.0
  C  C152  1  0.65180000  0.81420000  0.73980000  1.0
  C  C153  1  0.43880000  0.05490000  0.74010000  1.0
  C  C154  1  0.57520000  0.82220000  0.73270000  1.0
  C  C155  1  0.54390000  0.93320000  0.73570000  1.0
  C  C156  1  0.47300000  0.93810000  0.73180000  1.0
  C  C157  1  0.43520000  0.83220000  0.72480000  1.0
  C  C158  1  0.46570000  0.72310000  0.71810000  1.0
  C  C159  1  0.53480000  0.71980000  0.72220000  1.0
  O  O160  1  0.44330000  0.61730000  0.32400000  1.0
  O  O161  1  0.34870000  0.52200000  0.33100000  1.0
  O  O162  1  0.35780000  0.31330000  0.56080000  1.0
  O  O163  1  0.43580000  0.39060000  0.65960000  1.0
  O  O164  1  0.25660000  0.52680000  0.07720000  1.0
  O  O165  1  0.27010000  0.42500000  0.17870000  1.0
  O  O166  1  0.27610000  0.89880000  0.08530000  1.0
  O  O167  1  0.23870000  0.98310000  0.17100000  1.0
  O  O168  1  0.18560000  0.58850000  0.24860000  1.0
  O  O169  1  0.17710000  0.78750000  0.23750000  1.0
  O  O170  1  0.30940000  0.71100000  0.20350000  1.0
  O  O171  1  0.88180000  0.45030000  0.25280000  1.0
  O  O172  1  0.96970000  0.35090000  0.23290000  1.0
  O  O173  1  0.94330000  0.11730000  0.32400000  1.0
  O  O174  1  0.84870000  0.02200000  0.33100000  1.0
  O  O175  1  0.85780000  0.81330000  0.56080000  1.0
  O  O176  1  0.93580000  0.89060000  0.65960000  1.0
  O  O177  1  0.75660000  0.02680000  0.07720000  1.0
  O  O178  1  0.77010000  0.92500000  0.17870000  1.0
  O  O179  1  0.77610000  0.39880000  0.08530000  1.0
  O  O180  1  0.73870000  0.48310000  0.17100000  1.0
  O  O181  1  0.68560000  0.08850000  0.24860000  1.0
  O  O182  1  0.67710000  0.28750000  0.23750000  1.0
  O  O183  1  0.80940000  0.21100000  0.20350000  1.0
  O  O184  1  0.38180000  0.95030000  0.25280000  1.0
  O  O185  1  0.46970000  0.85090000  0.23290000  1.0
  O  O186  1  0.44330000  0.38270000  0.82400000  1.0
  O  O187  1  0.34870000  0.47800000  0.83100000  1.0
  O  O188  1  0.35780000  0.68670000  0.06080000  1.0
  O  O189  1  0.43580000  0.60940000  0.15960000  1.0
  O  O190  1  0.25660000  0.47320000  0.57720000  1.0
  O  O191  1  0.27010000  0.57500000  0.67870000  1.0
  O  O192  1  0.27610000  0.10120000  0.58530000  1.0
  O  O193  1  0.23870000  0.01690000  0.67100000  1.0
  O  O194  1  0.18560000  0.41150000  0.74860000  1.0
  O  O195  1  0.17710000  0.21250000  0.73750000  1.0
  O  O196  1  0.30940000  0.28900000  0.70350000  1.0
  O  O197  1  0.88180000  0.54970000  0.75280000  1.0
  O  O198  1  0.96970000  0.64910000  0.73290000  1.0
  O  O199  1  0.94330000  0.88270000  0.82400000  1.0
  O  O200  1  0.84870000  0.97800000  0.83100000  1.0
  O  O201  1  0.85780000  0.18670000  0.06080000  1.0
  O  O202  1  0.93580000  0.10940000  0.15960000  1.0
  O  O203  1  0.75660000  0.97320000  0.57720000  1.0
  O  O204  1  0.77010000  0.07500000  0.67870000  1.0
  O  O205  1  0.77610000  0.60120000  0.58530000  1.0
  O  O206  1  0.73870000  0.51690000  0.67100000  1.0
  O  O207  1  0.68560000  0.91150000  0.74860000  1.0
  O  O208  1  0.67710000  0.71250000  0.73750000  1.0
  O  O209  1  0.80940000  0.78900000  0.70350000  1.0
  O  O210  1  0.38180000  0.04970000  0.75280000  1.0
  O  O211  1  0.46970000  0.14910000  0.73290000  1.0
