# generated using pymatgen
data_NdZnH5C13(NO4)2
_symmetry_space_group_name_H-M   'P 1'
_cell_length_a   9.59030000
_cell_length_b   10.18060000
_cell_length_c   20.28050000
_cell_angle_alpha   102.76500000
_cell_angle_beta   90.00000000
_cell_angle_gamma   90.00000000
_symmetry_Int_Tables_number   1
_chemical_formula_structural   NdZnH5C13(NO4)2
_chemical_formula_sum   'Nd4 Zn4 H20 C52 N8 O32'
_cell_volume   1931.14796559
_cell_formula_units_Z   4
loop_
 _symmetry_equiv_pos_site_id
 _symmetry_equiv_pos_as_xyz
  1  'x, y, z'
loop_
 _atom_site_type_symbol
 _atom_site_label
 _atom_site_symmetry_multiplicity
 _atom_site_fract_x
 _atom_site_fract_y
 _atom_site_fract_z
 _atom_site_occupancy
  Nd  Nd0  1  0.43038000  0.76885000  0.79799000  1.0
  Nd  Nd1  1  0.93038000  0.73115000  0.70201000  1.0
  Nd  Nd2  1  0.56962000  0.23115000  0.20201000  1.0
  Nd  Nd3  1  0.06962000  0.26885000  0.29799000  1.0
  Zn  Zn4  1  0.86146000  0.30099000  0.66342000  1.0
  Zn  Zn5  1  0.36146000  0.19901000  0.83658000  1.0
  Zn  Zn6  1  0.13854000  0.69901000  0.33658000  1.0
  Zn  Zn7  1  0.63854000  0.80099000  0.16342000  1.0
  H  H8  1  0.00620000  0.94080000  0.15260000  1.0
  H  H9  1  0.90020000  0.82080000  0.05590000  1.0
  H  H10  1  0.01970000  0.77860000  0.95450000  1.0
  H  H11  1  0.34970000  0.98200000  0.04680000  1.0
  H  H12  1  0.62420000  0.10420000  0.72100000  1.0
  H  H13  1  0.50620000  0.55920000  0.34740000  1.0
  H  H14  1  0.40020000  0.67920000  0.44410000  1.0
  H  H15  1  0.51970000  0.72140000  0.54550000  1.0
  H  H16  1  0.84970000  0.51800000  0.45320000  1.0
  H  H17  1  0.12420000  0.39580000  0.77900000  1.0
  H  H18  1  0.99380000  0.05920000  0.84740000  1.0
  H  H19  1  0.09980000  0.17920000  0.94410000  1.0
  H  H20  1  0.98030000  0.22140000  0.04550000  1.0
  H  H21  1  0.65030000  0.01800000  0.95320000  1.0
  H  H22  1  0.37580000  0.89580000  0.27900000  1.0
  H  H23  1  0.49380000  0.44080000  0.65260000  1.0
  H  H24  1  0.59980000  0.32080000  0.55590000  1.0
  H  H25  1  0.48030000  0.27860000  0.45450000  1.0
  H  H26  1  0.15030000  0.48200000  0.54680000  1.0
  H  H27  1  0.87580000  0.60420000  0.22100000  1.0
  C  C28  1  0.18820000  0.97290000  0.11010000  1.0
  C  C29  1  0.05440000  0.92450000  0.11180000  1.0
  C  C30  1  0.99080000  0.85240000  0.05400000  1.0
  C  C31  1  0.06200000  0.82750000  0.99350000  1.0
  C  C32  1  0.19600000  0.87508000  0.99078000  1.0
  C  C33  1  0.25980000  0.94889000  0.04889000  1.0
  C  C34  1  0.27450000  0.84546000  0.92526000  1.0
  C  C35  1  0.25650000  0.05092000  0.17412000  1.0
  C  C36  1  0.70650000  0.53293000  0.73893000  1.0
  C  C37  1  0.64120000  0.41176000  0.75316000  1.0
  C  C38  1  0.53890000  0.38684000  0.79624000  1.0
  C  C39  1  0.45190000  0.47305000  0.84855000  1.0
  C  C40  1  0.61370000  0.19630000  0.73780000  1.0
  C  C41  1  0.68820000  0.52710000  0.38990000  1.0
  C  C42  1  0.55440000  0.57550000  0.38820000  1.0
  C  C43  1  0.49080000  0.64760000  0.44600000  1.0
  C  C44  1  0.56200000  0.67250000  0.50650000  1.0
  C  C45  1  0.69600000  0.62492000  0.50922000  1.0
  C  C46  1  0.75980000  0.55111000  0.45111000  1.0
  C  C47  1  0.77450000  0.65454000  0.57474000  1.0
  C  C48  1  0.75650000  0.44908000  0.32588000  1.0
  C  C49  1  0.20650000  0.96707000  0.76107000  1.0
  C  C50  1  0.14120000  0.08824000  0.74684000  1.0
  C  C51  1  0.03890000  0.11316000  0.70376000  1.0
  C  C52  1  0.95190000  0.02695000  0.65145000  1.0
  C  C53  1  0.11370000  0.30370000  0.76220000  1.0
  C  C54  1  0.81180000  0.02710000  0.88990000  1.0
  C  C55  1  0.94560000  0.07550000  0.88820000  1.0
  C  C56  1  0.00920000  0.14760000  0.94600000  1.0
  C  C57  1  0.93800000  0.17250000  0.00650000  1.0
  C  C58  1  0.80400000  0.12492000  0.00922000  1.0
  C  C59  1  0.74020000  0.05111000  0.95111000  1.0
  C  C60  1  0.72550000  0.15454000  0.07474000  1.0
  C  C61  1  0.74350000  0.94908000  0.82588000  1.0
  C  C62  1  0.29350000  0.46707000  0.26107000  1.0
  C  C63  1  0.35880000  0.58824000  0.24684000  1.0
  C  C64  1  0.46110000  0.61316000  0.20376000  1.0
  C  C65  1  0.54810000  0.52695000  0.15145000  1.0
  C  C66  1  0.38630000  0.80370000  0.26220000  1.0
  C  C67  1  0.31180000  0.47290000  0.61010000  1.0
  C  C68  1  0.44560000  0.42450000  0.61180000  1.0
  C  C69  1  0.50920000  0.35240000  0.55400000  1.0
  C  C70  1  0.43800000  0.32750000  0.49350000  1.0
  C  C71  1  0.30400000  0.37508000  0.49078000  1.0
  C  C72  1  0.24020000  0.44889000  0.54889000  1.0
  C  C73  1  0.22550000  0.34546000  0.42526000  1.0
  C  C74  1  0.24350000  0.55092000  0.67412000  1.0
  C  C75  1  0.79350000  0.03293000  0.23893000  1.0
  C  C76  1  0.85880000  0.91176000  0.25316000  1.0
  C  C77  1  0.96110000  0.88684000  0.29624000  1.0
  C  C78  1  0.04810000  0.97305000  0.34855000  1.0
  C  C79  1  0.88630000  0.69630000  0.23780000  1.0
  N  N80  1  0.68780000  0.28944000  0.71624000  1.0
  N  N81  1  0.52300000  0.24954000  0.78604000  1.0
  N  N82  1  0.18780000  0.21056000  0.78376000  1.0
  N  N83  1  0.02300000  0.25046000  0.71396000  1.0
  N  N84  1  0.31220000  0.71056000  0.28376000  1.0
  N  N85  1  0.47700000  0.75046000  0.21396000  1.0
  N  N86  1  0.81220000  0.78944000  0.21624000  1.0
  N  N87  1  0.97700000  0.74954000  0.28604000  1.0
  O  O88  1  0.21890000  0.77228000  0.87328000  1.0
  O  O89  1  0.39630000  0.89212000  0.92202000  1.0
  O  O90  1  0.38270000  0.07811000  0.17111000  1.0
  O  O91  1  0.18190000  0.08249000  0.22669000  1.0
  O  O92  1  0.65960000  0.64842000  0.75942000  1.0
  O  O93  1  0.81750000  0.51053000  0.70283000  1.0
  O  O94  1  0.47160000  0.59926000  0.86296000  1.0
  O  O95  1  0.36350000  0.41436000  0.87776000  1.0
  O  O96  1  0.71890000  0.72772000  0.62672000  1.0
  O  O97  1  0.89630000  0.60788000  0.57798000  1.0
  O  O98  1  0.88270000  0.42189000  0.32889000  1.0
  O  O99  1  0.68190000  0.41751000  0.27331000  1.0
  O  O100  1  0.15960000  0.85158000  0.74058000  1.0
  O  O101  1  0.31750000  0.98947000  0.79717000  1.0
  O  O102  1  0.97160000  0.90074000  0.63704000  1.0
  O  O103  1  0.86350000  0.08564000  0.62224000  1.0
  O  O104  1  0.78110000  0.22772000  0.12672000  1.0
  O  O105  1  0.60370000  0.10788000  0.07798000  1.0
  O  O106  1  0.61730000  0.92189000  0.82889000  1.0
  O  O107  1  0.81810000  0.91751000  0.77331000  1.0
  O  O108  1  0.34040000  0.35158000  0.24058000  1.0
  O  O109  1  0.18250000  0.48947000  0.29717000  1.0
  O  O110  1  0.52840000  0.40074000  0.13704000  1.0
  O  O111  1  0.63650000  0.58564000  0.12224000  1.0
  O  O112  1  0.28110000  0.27228000  0.37328000  1.0
  O  O113  1  0.10370000  0.39212000  0.42202000  1.0
  O  O114  1  0.11730000  0.57811000  0.67111000  1.0
  O  O115  1  0.31810000  0.58249000  0.72669000  1.0
  O  O116  1  0.84040000  0.14842000  0.25942000  1.0
  O  O117  1  0.68250000  0.01053000  0.20283000  1.0
  O  O118  1  0.02840000  0.09926000  0.36296000  1.0
  O  O119  1  0.13650000  0.91436000  0.37776000  1.0
