# generated using pymatgen
data_GdZnH5C13(NO4)2
_symmetry_space_group_name_H-M   'P 1'
_cell_length_a   9.58310000
_cell_length_b   10.10450000
_cell_length_c   20.17350000
_cell_angle_alpha   103.26200000
_cell_angle_beta   90.00000000
_cell_angle_gamma   90.00000000
_symmetry_Int_Tables_number   1
_chemical_formula_structural   GdZnH5C13(NO4)2
_chemical_formula_sum   'Gd4 Zn4 H20 C52 N8 O32'
_cell_volume   1901.35302819
_cell_formula_units_Z   4
loop_
 _symmetry_equiv_pos_site_id
 _symmetry_equiv_pos_as_xyz
  1  'x, y, z'
loop_
 _atom_site_type_symbol
 _atom_site_label
 _atom_site_symmetry_multiplicity
 _atom_site_fract_x
 _atom_site_fract_y
 _atom_site_fract_z
 _atom_site_occupancy
  Gd  Gd0  1  0.42944000  0.76877000  0.79855000  1.0
  Gd  Gd1  1  0.92944000  0.73123000  0.70145000  1.0
  Gd  Gd2  1  0.57056000  0.23123000  0.20145000  1.0
  Gd  Gd3  1  0.07056000  0.26877000  0.29855000  1.0
  Zn  Zn4  1  0.86150000  0.30367000  0.66379000  1.0
  Zn  Zn5  1  0.36150000  0.19633000  0.83621000  1.0
  Zn  Zn6  1  0.13850000  0.69633000  0.33621000  1.0
  Zn  Zn7  1  0.63850000  0.80367000  0.16379000  1.0
  H  H8  1  0.00770000  0.94430000  0.15350000  1.0
  H  H9  1  0.90160000  0.82350000  0.05650000  1.0
  H  H10  1  0.01870000  0.77920000  0.95430000  1.0
  H  H11  1  0.35170000  0.98360000  0.04680000  1.0
  H  H12  1  0.62730000  0.10180000  0.72020000  1.0
  H  H13  1  0.50770000  0.55570000  0.34650000  1.0
  H  H14  1  0.40160000  0.67650000  0.44350000  1.0
  H  H15  1  0.51870000  0.72080000  0.54570000  1.0
  H  H16  1  0.85170000  0.51640000  0.45320000  1.0
  H  H17  1  0.12730000  0.39820000  0.77980000  1.0
  H  H18  1  0.99230000  0.05570000  0.84650000  1.0
  H  H19  1  0.09840000  0.17650000  0.94350000  1.0
  H  H20  1  0.98130000  0.22080000  0.04570000  1.0
  H  H21  1  0.64830000  0.01640000  0.95320000  1.0
  H  H22  1  0.37270000  0.89820000  0.27980000  1.0
  H  H23  1  0.49230000  0.44430000  0.65350000  1.0
  H  H24  1  0.59840000  0.32350000  0.55650000  1.0
  H  H25  1  0.48130000  0.27920000  0.45430000  1.0
  H  H26  1  0.14830000  0.48360000  0.54680000  1.0
  H  H27  1  0.87270000  0.60180000  0.22020000  1.0
  C  C28  1  0.19150000  0.97520000  0.11060000  1.0
  C  C29  1  0.05590000  0.92710000  0.11240000  1.0
  C  C30  1  0.99230000  0.85490000  0.05450000  1.0
  C  C31  1  0.06220000  0.82850000  0.99340000  1.0
  C  C32  1  0.19790000  0.87570000  0.99000000  1.0
  C  C33  1  0.26170000  0.95030000  0.04890000  1.0
  C  C34  1  0.27420000  0.84440000  0.92360000  1.0
  C  C35  1  0.25930000  0.05430000  0.17460000  1.0
  C  C36  1  0.70180000  0.53630000  0.73920000  1.0
  C  C37  1  0.63870000  0.41170000  0.75280000  1.0
  C  C38  1  0.53650000  0.38650000  0.79540000  1.0
  C  C39  1  0.44840000  0.47390000  0.84830000  1.0
  C  C40  1  0.61480000  0.19470000  0.73710000  1.0
  C  C41  1  0.69150000  0.52480000  0.38940000  1.0
  C  C42  1  0.55590000  0.57290000  0.38760000  1.0
  C  C43  1  0.49230000  0.64510000  0.44550000  1.0
  C  C44  1  0.56220000  0.67150000  0.50660000  1.0
  C  C45  1  0.69790000  0.62430000  0.51000000  1.0
  C  C46  1  0.76170000  0.54970000  0.45110000  1.0
  C  C47  1  0.77420000  0.65560000  0.57640000  1.0
  C  C48  1  0.75930000  0.44570000  0.32540000  1.0
  C  C49  1  0.20180000  0.96370000  0.76080000  1.0
  C  C50  1  0.13870000  0.08830000  0.74720000  1.0
  C  C51  1  0.03650000  0.11350000  0.70460000  1.0
  C  C52  1  0.94840000  0.02610000  0.65170000  1.0
  C  C53  1  0.11480000  0.30530000  0.76290000  1.0
  C  C54  1  0.80850000  0.02480000  0.88940000  1.0
  C  C55  1  0.94410000  0.07290000  0.88760000  1.0
  C  C56  1  0.00770000  0.14510000  0.94550000  1.0
  C  C57  1  0.93780000  0.17150000  0.00660000  1.0
  C  C58  1  0.80210000  0.12430000  0.01000000  1.0
  C  C59  1  0.73830000  0.04970000  0.95110000  1.0
  C  C60  1  0.72580000  0.15560000  0.07640000  1.0
  C  C61  1  0.74070000  0.94570000  0.82540000  1.0
  C  C62  1  0.29820000  0.46370000  0.26080000  1.0
  C  C63  1  0.36130000  0.58830000  0.24720000  1.0
  C  C64  1  0.46350000  0.61350000  0.20460000  1.0
  C  C65  1  0.55160000  0.52610000  0.15170000  1.0
  C  C66  1  0.38520000  0.80530000  0.26290000  1.0
  C  C67  1  0.30850000  0.47520000  0.61060000  1.0
  C  C68  1  0.44410000  0.42710000  0.61240000  1.0
  C  C69  1  0.50770000  0.35490000  0.55450000  1.0
  C  C70  1  0.43780000  0.32850000  0.49340000  1.0
  C  C71  1  0.30210000  0.37570000  0.49000000  1.0
  C  C72  1  0.23830000  0.45030000  0.54890000  1.0
  C  C73  1  0.22580000  0.34440000  0.42360000  1.0
  C  C74  1  0.24070000  0.55430000  0.67460000  1.0
  C  C75  1  0.79820000  0.03630000  0.23920000  1.0
  C  C76  1  0.86130000  0.91170000  0.25280000  1.0
  C  C77  1  0.96350000  0.88650000  0.29540000  1.0
  C  C78  1  0.05160000  0.97390000  0.34830000  1.0
  C  C79  1  0.88520000  0.69470000  0.23710000  1.0
  N  N80  1  0.68690000  0.28990000  0.71580000  1.0
  N  N81  1  0.52180000  0.24810000  0.78580000  1.0
  N  N82  1  0.18690000  0.21010000  0.78420000  1.0
  N  N83  1  0.02180000  0.25190000  0.71420000  1.0
  N  N84  1  0.31310000  0.71010000  0.28420000  1.0
  N  N85  1  0.47820000  0.75190000  0.21420000  1.0
  N  N86  1  0.81310000  0.78990000  0.21580000  1.0
  N  N87  1  0.97820000  0.74810000  0.28580000  1.0
  O  O88  1  0.21950000  0.77188000  0.87148000  1.0
  O  O89  1  0.39710000  0.89046000  0.92056000  1.0
  O  O90  1  0.38690000  0.07955000  0.17145000  1.0
  O  O91  1  0.18610000  0.08801000  0.22751000  1.0
  O  O92  1  0.64990000  0.65020000  0.75930000  1.0
  O  O93  1  0.81400000  0.51643000  0.70393000  1.0
  O  O94  1  0.46670000  0.60126000  0.86206000  1.0
  O  O95  1  0.36180000  0.41489000  0.87799000  1.0
  O  O96  1  0.71950000  0.72812000  0.62852000  1.0
  O  O97  1  0.89710000  0.60954000  0.57944000  1.0
  O  O98  1  0.88690000  0.42045000  0.32855000  1.0
  O  O99  1  0.68610000  0.41199000  0.27249000  1.0
  O  O100  1  0.14990000  0.84980000  0.74070000  1.0
  O  O101  1  0.31400000  0.98357000  0.79607000  1.0
  O  O102  1  0.96670000  0.89874000  0.63794000  1.0
  O  O103  1  0.86180000  0.08511000  0.62201000  1.0
  O  O104  1  0.78050000  0.22812000  0.12852000  1.0
  O  O105  1  0.60290000  0.10954000  0.07944000  1.0
  O  O106  1  0.61310000  0.92045000  0.82855000  1.0
  O  O107  1  0.81390000  0.91199000  0.77249000  1.0
  O  O108  1  0.35010000  0.34980000  0.24070000  1.0
  O  O109  1  0.18600000  0.48357000  0.29607000  1.0
  O  O110  1  0.53330000  0.39874000  0.13794000  1.0
  O  O111  1  0.63820000  0.58511000  0.12201000  1.0
  O  O112  1  0.28050000  0.27188000  0.37148000  1.0
  O  O113  1  0.10290000  0.39046000  0.42056000  1.0
  O  O114  1  0.11310000  0.57955000  0.67145000  1.0
  O  O115  1  0.31390000  0.58801000  0.72751000  1.0
  O  O116  1  0.85010000  0.15020000  0.25930000  1.0
  O  O117  1  0.68600000  0.01643000  0.20393000  1.0
  O  O118  1  0.03330000  0.10126000  0.36206000  1.0
  O  O119  1  0.13820000  0.91489000  0.37799000  1.0
