# generated using pymatgen
data_Cd3HC5N5O
_symmetry_space_group_name_H-M   'P 1'
_cell_length_a   11.35800000
_cell_length_b   12.36600000
_cell_length_c   12.61900000
_cell_angle_alpha   90.00000000
_cell_angle_beta   90.00000000
_cell_angle_gamma   104.05000000
_symmetry_Int_Tables_number   1
_chemical_formula_structural   Cd3HC5N5O
_chemical_formula_sum   'Cd12 H4 C20 N20 O4'
_cell_volume   1719.35476283
_cell_formula_units_Z   4
loop_
 _symmetry_equiv_pos_site_id
 _symmetry_equiv_pos_as_xyz
  1  'x, y, z'
loop_
 _atom_site_type_symbol
 _atom_site_label
 _atom_site_symmetry_multiplicity
 _atom_site_fract_x
 _atom_site_fract_y
 _atom_site_fract_z
 _atom_site_occupancy
  Cd  Cd0  1  0.51550000  0.05598000  0.37133000  1.0
  Cd  Cd1  1  0.30882000  0.12996000  0.97674000  1.0
  Cd  Cd2  1  0.73600000  0.48972000  0.24401000  1.0
  Cd  Cd3  1  0.98450000  0.94402000  0.87133000  1.0
  Cd  Cd4  1  0.19118000  0.87004000  0.47674000  1.0
  Cd  Cd5  1  0.76400000  0.51028000  0.74401000  1.0
  Cd  Cd6  1  0.48450000  0.94402000  0.62867000  1.0
  Cd  Cd7  1  0.69118000  0.87004000  0.02326000  1.0
  Cd  Cd8  1  0.26400000  0.51028000  0.75599000  1.0
  Cd  Cd9  1  0.01550000  0.05598000  0.12867000  1.0
  Cd  Cd10  1  0.80882000  0.12996000  0.52326000  1.0
  Cd  Cd11  1  0.23600000  0.48972000  0.25599000  1.0
  H  H12  1  0.64860000  0.90900000  0.48720000  1.0
  H  H13  1  0.85140000  0.09100000  0.98720000  1.0
  H  H14  1  0.35140000  0.09100000  0.51280000  1.0
  H  H15  1  0.14860000  0.90900000  0.01280000  1.0
  C  C16  1  0.61820000  0.23410000  0.36150000  1.0
  C  C17  1  0.25970000  0.27530000  0.90620000  1.0
  C  C18  1  0.43370000  0.48620000  0.25920000  1.0
  C  C19  1  0.35510000  0.10020000  0.14280000  1.0
  C  C20  1  0.57990000  0.95590000  0.24770000  1.0
  C  C21  1  0.88180000  0.76590000  0.86150000  1.0
  C  C22  1  0.24030000  0.72470000  0.40620000  1.0
  C  C23  1  0.06630000  0.51380000  0.75920000  1.0
  C  C24  1  0.14490000  0.89980000  0.64280000  1.0
  C  C25  1  0.92010000  0.04410000  0.74770000  1.0
  C  C26  1  0.38180000  0.76590000  0.63850000  1.0
  C  C27  1  0.74030000  0.72470000  0.09380000  1.0
  C  C28  1  0.56630000  0.51380000  0.74080000  1.0
  C  C29  1  0.64490000  0.89980000  0.85720000  1.0
  C  C30  1  0.42010000  0.04410000  0.75230000  1.0
  C  C31  1  0.11820000  0.23410000  0.13850000  1.0
  C  C32  1  0.75970000  0.27530000  0.59380000  1.0
  C  C33  1  0.93370000  0.48620000  0.24080000  1.0
  C  C34  1  0.85510000  0.10020000  0.35720000  1.0
  C  C35  1  0.07990000  0.95590000  0.25230000  1.0
  N  N36  1  0.67240000  0.32280000  0.34290000  1.0
  N  N37  1  0.24210000  0.35120000  0.86300000  1.0
  N  N38  1  0.53630000  0.49000000  0.25730000  1.0
  N  N39  1  0.38320000  0.08740000  0.22710000  1.0
  N  N40  1  0.61770000  0.93280000  0.17000000  1.0
  N  N41  1  0.82760000  0.67720000  0.84290000  1.0
  N  N42  1  0.25790000  0.64880000  0.36300000  1.0
  N  N43  1  0.96370000  0.51000000  0.75730000  1.0
  N  N44  1  0.11680000  0.91260000  0.72710000  1.0
  N  N45  1  0.88230000  0.06720000  0.67000000  1.0
  N  N46  1  0.32760000  0.67720000  0.65710000  1.0
  N  N47  1  0.75790000  0.64880000  0.13700000  1.0
  N  N48  1  0.46370000  0.51000000  0.74270000  1.0
  N  N49  1  0.61680000  0.91260000  0.77290000  1.0
  N  N50  1  0.38230000  0.06720000  0.83000000  1.0
  N  N51  1  0.17240000  0.32280000  0.15710000  1.0
  N  N52  1  0.74210000  0.35120000  0.63700000  1.0
  N  N53  1  0.03630000  0.49000000  0.24270000  1.0
  N  N54  1  0.88320000  0.08740000  0.27290000  1.0
  N  N55  1  0.11770000  0.93280000  0.33000000  1.0
  O  O56  1  0.62820000  0.99700000  0.51120000  1.0
  O  O57  1  0.87180000  0.00300000  0.01120000  1.0
  O  O58  1  0.37180000  0.00300000  0.48880000  1.0
  O  O59  1  0.12820000  0.99700000  0.98880000  1.0
