# generated using pymatgen
data_Tb2Zn19H54C54N72(Cl2O9)4
_symmetry_space_group_name_H-M   'P 1'
_cell_length_a   18.09080000
_cell_length_b   18.09080000
_cell_length_c   24.75300000
_cell_angle_alpha   90.00000000
_cell_angle_beta   90.00000000
_cell_angle_gamma   120.00000000
_symmetry_Int_Tables_number   1
_chemical_formula_structural   Tb2Zn19H54C54N72(Cl2O9)4
_chemical_formula_sum   'Tb4 Zn38 H108 C108 N144 Cl16 O72'
_cell_volume   7015.74860036
_cell_formula_units_Z   2
loop_
 _symmetry_equiv_pos_site_id
 _symmetry_equiv_pos_as_xyz
  1  'x, y, z'
loop_
 _atom_site_type_symbol
 _atom_site_label
 _atom_site_symmetry_multiplicity
 _atom_site_fract_x
 _atom_site_fract_y
 _atom_site_fract_z
 _atom_site_occupancy
  Tb  Tb0  1  0.00000000  0.00000000  0.12452000  1.0
  Tb  Tb1  1  0.00000000  0.00000000  0.62452000  1.0
  Tb  Tb2  1  0.00000000  0.00000000  0.37548000  1.0
  Tb  Tb3  1  0.00000000  0.00000000  0.87548000  1.0
  Zn  Zn4  1  0.00000000  0.21069000  0.14329000  1.0
  Zn  Zn5  1  0.00000000  0.33285000  0.91356000  1.0
  Zn  Zn6  1  0.78931000  0.78931000  0.14329000  1.0
  Zn  Zn7  1  0.66715000  0.66715000  0.91356000  1.0
  Zn  Zn8  1  0.21069000  0.00000000  0.14329000  1.0
  Zn  Zn9  1  0.33285000  0.00000000  0.91356000  1.0
  Zn  Zn10  1  0.00000000  0.78931000  0.64329000  1.0
  Zn  Zn11  1  0.00000000  0.66715000  0.41356000  1.0
  Zn  Zn12  1  0.21069000  0.21069000  0.64329000  1.0
  Zn  Zn13  1  0.33285000  0.33285000  0.41356000  1.0
  Zn  Zn14  1  0.78931000  0.00000000  0.64329000  1.0
  Zn  Zn15  1  0.66715000  0.00000000  0.41356000  1.0
  Zn  Zn16  1  0.21069000  0.00000000  0.35671000  1.0
  Zn  Zn17  1  0.33285000  0.00000000  0.58644000  1.0
  Zn  Zn18  1  0.78931000  0.78931000  0.35671000  1.0
  Zn  Zn19  1  0.66715000  0.66715000  0.58644000  1.0
  Zn  Zn20  1  0.00000000  0.21069000  0.35671000  1.0
  Zn  Zn21  1  0.00000000  0.33285000  0.58644000  1.0
  Zn  Zn22  1  0.78931000  0.00000000  0.85671000  1.0
  Zn  Zn23  1  0.66715000  0.00000000  0.08644000  1.0
  Zn  Zn24  1  0.21069000  0.21069000  0.85671000  1.0
  Zn  Zn25  1  0.33285000  0.33285000  0.08644000  1.0
  Zn  Zn26  1  0.00000000  0.78931000  0.85671000  1.0
  Zn  Zn27  1  0.00000000  0.66715000  0.08644000  1.0
  Zn  Zn28  1  0.00000000  0.50000000  0.00000000  1.0
  Zn  Zn29  1  0.50000000  0.50000000  0.00000000  1.0
  Zn  Zn30  1  0.50000000  0.00000000  0.00000000  1.0
  Zn  Zn31  1  0.00000000  0.50000000  0.50000000  1.0
  Zn  Zn32  1  0.50000000  0.50000000  0.50000000  1.0
  Zn  Zn33  1  0.50000000  0.00000000  0.50000000  1.0
  Zn  Zn34  1  0.33333333  0.66666667  0.87266000  1.0
  Zn  Zn35  1  0.66666667  0.33333333  0.37266000  1.0
  Zn  Zn36  1  0.66666667  0.33333333  0.62734000  1.0
  Zn  Zn37  1  0.33333333  0.66666667  0.12734000  1.0
  Zn  Zn38  1  0.66666667  0.33333333  0.12734000  1.0
  Zn  Zn39  1  0.33333333  0.66666667  0.62734000  1.0
  Zn  Zn40  1  0.33333333  0.66666667  0.37266000  1.0
  Zn  Zn41  1  0.66666667  0.33333333  0.87266000  1.0
  H  H42  1  0.18090000  0.64170000  0.94760000  1.0
  H  H43  1  0.17550000  0.40090000  0.84940000  1.0
  H  H44  1  0.25320000  0.48490000  0.83760000  1.0
  H  H45  1  0.35830000  0.53920000  0.94760000  1.0
  H  H46  1  0.59910000  0.77460000  0.84940000  1.0
  H  H47  1  0.51510000  0.76830000  0.83760000  1.0
  H  H48  1  0.46080000  0.81910000  0.94760000  1.0
  H  H49  1  0.22540000  0.82450000  0.84940000  1.0
  H  H50  1  0.23170000  0.74680000  0.83760000  1.0
  H  H51  1  0.81910000  0.35830000  0.44760000  1.0
  H  H52  1  0.82450000  0.59910000  0.34940000  1.0
  H  H53  1  0.74680000  0.51510000  0.33760000  1.0
  H  H54  1  0.64170000  0.46080000  0.44760000  1.0
  H  H55  1  0.40090000  0.22540000  0.34940000  1.0
  H  H56  1  0.48490000  0.23170000  0.33760000  1.0
  H  H57  1  0.53920000  0.18090000  0.44760000  1.0
  H  H58  1  0.77460000  0.17550000  0.34940000  1.0
  H  H59  1  0.76830000  0.25320000  0.33760000  1.0
  H  H60  1  0.64170000  0.18090000  0.55240000  1.0
  H  H61  1  0.40090000  0.17550000  0.65060000  1.0
  H  H62  1  0.48490000  0.25320000  0.66240000  1.0
  H  H63  1  0.53920000  0.35830000  0.55240000  1.0
  H  H64  1  0.77460000  0.59910000  0.65060000  1.0
  H  H65  1  0.76830000  0.51510000  0.66240000  1.0
  H  H66  1  0.81910000  0.46080000  0.55240000  1.0
  H  H67  1  0.82450000  0.22540000  0.65060000  1.0
  H  H68  1  0.74680000  0.23170000  0.66240000  1.0
  H  H69  1  0.35830000  0.81910000  0.05240000  1.0
  H  H70  1  0.59910000  0.82450000  0.15060000  1.0
  H  H71  1  0.51510000  0.74680000  0.16240000  1.0
  H  H72  1  0.46080000  0.64170000  0.05240000  1.0
  H  H73  1  0.22540000  0.40090000  0.15060000  1.0
  H  H74  1  0.23170000  0.48490000  0.16240000  1.0
  H  H75  1  0.18090000  0.53920000  0.05240000  1.0
  H  H76  1  0.17550000  0.77460000  0.15060000  1.0
  H  H77  1  0.25320000  0.76830000  0.16240000  1.0
  H  H78  1  0.81910000  0.35830000  0.05240000  1.0
  H  H79  1  0.82450000  0.59910000  0.15060000  1.0
  H  H80  1  0.74680000  0.51510000  0.16240000  1.0
  H  H81  1  0.64170000  0.46080000  0.05240000  1.0
  H  H82  1  0.40090000  0.22540000  0.15060000  1.0
  H  H83  1  0.48490000  0.23170000  0.16240000  1.0
  H  H84  1  0.53920000  0.18090000  0.05240000  1.0
  H  H85  1  0.77460000  0.17550000  0.15060000  1.0
  H  H86  1  0.76830000  0.25320000  0.16240000  1.0
  H  H87  1  0.18090000  0.64170000  0.55240000  1.0
  H  H88  1  0.17550000  0.40090000  0.65060000  1.0
  H  H89  1  0.25320000  0.48490000  0.66240000  1.0
  H  H90  1  0.35830000  0.53920000  0.55240000  1.0
  H  H91  1  0.59910000  0.77460000  0.65060000  1.0
  H  H92  1  0.51510000  0.76830000  0.66240000  1.0
  H  H93  1  0.46080000  0.81910000  0.55240000  1.0
  H  H94  1  0.22540000  0.82450000  0.65060000  1.0
  H  H95  1  0.23170000  0.74680000  0.66240000  1.0
  H  H96  1  0.35830000  0.81910000  0.44760000  1.0
  H  H97  1  0.59910000  0.82450000  0.34940000  1.0
  H  H98  1  0.51510000  0.74680000  0.33760000  1.0
  H  H99  1  0.46080000  0.64170000  0.44760000  1.0
  H  H100  1  0.22540000  0.40090000  0.34940000  1.0
  H  H101  1  0.23170000  0.48490000  0.33760000  1.0
  H  H102  1  0.18090000  0.53920000  0.44760000  1.0
  H  H103  1  0.17550000  0.77460000  0.34940000  1.0
  H  H104  1  0.25320000  0.76830000  0.33760000  1.0
  H  H105  1  0.64170000  0.18090000  0.94760000  1.0
  H  H106  1  0.40090000  0.17550000  0.84940000  1.0
  H  H107  1  0.48490000  0.25320000  0.83760000  1.0
  H  H108  1  0.53920000  0.35830000  0.94760000  1.0
  H  H109  1  0.77460000  0.59910000  0.84940000  1.0
  H  H110  1  0.76830000  0.51510000  0.83760000  1.0
  H  H111  1  0.81910000  0.46080000  0.94760000  1.0
  H  H112  1  0.82450000  0.22540000  0.84940000  1.0
  H  H113  1  0.74680000  0.23170000  0.83760000  1.0
  H  H114  1  0.00000000  0.21410000  0.01810000  1.0
  H  H115  1  0.00000000  0.44660000  0.12680000  1.0
  H  H116  1  0.00000000  0.37710000  0.15940000  1.0
  H  H117  1  0.78590000  0.78590000  0.01810000  1.0
  H  H118  1  0.55340000  0.55340000  0.12680000  1.0
  H  H119  1  0.62290000  0.62290000  0.15940000  1.0
  H  H120  1  0.21410000  0.00000000  0.01810000  1.0
  H  H121  1  0.44660000  0.00000000  0.12680000  1.0
  H  H122  1  0.37710000  0.00000000  0.15940000  1.0
  H  H123  1  0.00000000  0.78590000  0.51810000  1.0
  H  H124  1  0.00000000  0.55340000  0.62680000  1.0
  H  H125  1  0.00000000  0.62290000  0.65940000  1.0
  H  H126  1  0.21410000  0.21410000  0.51810000  1.0
  H  H127  1  0.44660000  0.44660000  0.62680000  1.0
  H  H128  1  0.37710000  0.37710000  0.65940000  1.0
  H  H129  1  0.78590000  0.00000000  0.51810000  1.0
  H  H130  1  0.55340000  0.00000000  0.62680000  1.0
  H  H131  1  0.62290000  0.00000000  0.65940000  1.0
  H  H132  1  0.21410000  0.00000000  0.48190000  1.0
  H  H133  1  0.44660000  0.00000000  0.37320000  1.0
  H  H134  1  0.37710000  0.00000000  0.34060000  1.0
  H  H135  1  0.78590000  0.78590000  0.48190000  1.0
  H  H136  1  0.55340000  0.55340000  0.37320000  1.0
  H  H137  1  0.62290000  0.62290000  0.34060000  1.0
  H  H138  1  0.00000000  0.21410000  0.48190000  1.0
  H  H139  1  0.00000000  0.44660000  0.37320000  1.0
  H  H140  1  0.00000000  0.37710000  0.34060000  1.0
  H  H141  1  0.78590000  0.00000000  0.98190000  1.0
  H  H142  1  0.55340000  0.00000000  0.87320000  1.0
  H  H143  1  0.62290000  0.00000000  0.84060000  1.0
  H  H144  1  0.21410000  0.21410000  0.98190000  1.0
  H  H145  1  0.44660000  0.44660000  0.87320000  1.0
  H  H146  1  0.37710000  0.37710000  0.84060000  1.0
  H  H147  1  0.00000000  0.78590000  0.98190000  1.0
  H  H148  1  0.00000000  0.55340000  0.87320000  1.0
  H  H149  1  0.00000000  0.62290000  0.84060000  1.0
  C  C150  1  0.15610000  0.20480000  0.11080000  1.0
  C  C151  1  0.17500000  0.49460000  0.88530000  1.0
  C  C152  1  0.16720000  0.58930000  0.93230000  1.0
  C  C153  1  0.79520000  0.95130000  0.11080000  1.0
  C  C154  1  0.50540000  0.68040000  0.88530000  1.0
  C  C155  1  0.41070000  0.57790000  0.93230000  1.0
  C  C156  1  0.04870000  0.84390000  0.11080000  1.0
  C  C157  1  0.31960000  0.82500000  0.88530000  1.0
  C  C158  1  0.42210000  0.83280000  0.93230000  1.0
  C  C159  1  0.84390000  0.79520000  0.61080000  1.0
  C  C160  1  0.82500000  0.50540000  0.38530000  1.0
  C  C161  1  0.83280000  0.41070000  0.43230000  1.0
  C  C162  1  0.20480000  0.04870000  0.61080000  1.0
  C  C163  1  0.49460000  0.31960000  0.38530000  1.0
  C  C164  1  0.58930000  0.42210000  0.43230000  1.0
  C  C165  1  0.95130000  0.15610000  0.61080000  1.0
  C  C166  1  0.68040000  0.17500000  0.38530000  1.0
  C  C167  1  0.57790000  0.16720000  0.43230000  1.0
  C  C168  1  0.20480000  0.15610000  0.38920000  1.0
  C  C169  1  0.49460000  0.17500000  0.61470000  1.0
  C  C170  1  0.58930000  0.16720000  0.56770000  1.0
  C  C171  1  0.95130000  0.79520000  0.38920000  1.0
  C  C172  1  0.68040000  0.50540000  0.61470000  1.0
  C  C173  1  0.57790000  0.41070000  0.56770000  1.0
  C  C174  1  0.84390000  0.04870000  0.38920000  1.0
  C  C175  1  0.82500000  0.31960000  0.61470000  1.0
  C  C176  1  0.83280000  0.42210000  0.56770000  1.0
  C  C177  1  0.79520000  0.84390000  0.88920000  1.0
  C  C178  1  0.50540000  0.82500000  0.11470000  1.0
  C  C179  1  0.41070000  0.83280000  0.06770000  1.0
  C  C180  1  0.04870000  0.20480000  0.88920000  1.0
  C  C181  1  0.31960000  0.49460000  0.11470000  1.0
  C  C182  1  0.42210000  0.58930000  0.06770000  1.0
  C  C183  1  0.15610000  0.95130000  0.88920000  1.0
  C  C184  1  0.17500000  0.68040000  0.11470000  1.0
  C  C185  1  0.16720000  0.57790000  0.06770000  1.0
  C  C186  1  0.84390000  0.79520000  0.88920000  1.0
  C  C187  1  0.82500000  0.50540000  0.11470000  1.0
  C  C188  1  0.83280000  0.41070000  0.06770000  1.0
  C  C189  1  0.20480000  0.04870000  0.88920000  1.0
  C  C190  1  0.49460000  0.31960000  0.11470000  1.0
  C  C191  1  0.58930000  0.42210000  0.06770000  1.0
  C  C192  1  0.95130000  0.15610000  0.88920000  1.0
  C  C193  1  0.68040000  0.17500000  0.11470000  1.0
  C  C194  1  0.57790000  0.16720000  0.06770000  1.0
  C  C195  1  0.15610000  0.20480000  0.38920000  1.0
  C  C196  1  0.17500000  0.49460000  0.61470000  1.0
  C  C197  1  0.16720000  0.58930000  0.56770000  1.0
  C  C198  1  0.79520000  0.95130000  0.38920000  1.0
  C  C199  1  0.50540000  0.68040000  0.61470000  1.0
  C  C200  1  0.41070000  0.57790000  0.56770000  1.0
  C  C201  1  0.04870000  0.84390000  0.38920000  1.0
  C  C202  1  0.31960000  0.82500000  0.61470000  1.0
  C  C203  1  0.42210000  0.83280000  0.56770000  1.0
  C  C204  1  0.79520000  0.84390000  0.61080000  1.0
  C  C205  1  0.50540000  0.82500000  0.38530000  1.0
  C  C206  1  0.41070000  0.83280000  0.43230000  1.0
  C  C207  1  0.04870000  0.20480000  0.61080000  1.0
  C  C208  1  0.31960000  0.49460000  0.38530000  1.0
  C  C209  1  0.42210000  0.58930000  0.43230000  1.0
  C  C210  1  0.15610000  0.95130000  0.61080000  1.0
  C  C211  1  0.17500000  0.68040000  0.38530000  1.0
  C  C212  1  0.16720000  0.57790000  0.43230000  1.0
  C  C213  1  0.20480000  0.15610000  0.11080000  1.0
  C  C214  1  0.49460000  0.17500000  0.88530000  1.0
  C  C215  1  0.58930000  0.16720000  0.93230000  1.0
  C  C216  1  0.95130000  0.79520000  0.11080000  1.0
  C  C217  1  0.68040000  0.50540000  0.88530000  1.0
  C  C218  1  0.57790000  0.41070000  0.93230000  1.0
  C  C219  1  0.84390000  0.04870000  0.11080000  1.0
  C  C220  1  0.82500000  0.31960000  0.88530000  1.0
  C  C221  1  0.83280000  0.42210000  0.93230000  1.0
  C  C222  1  0.04910000  0.26250000  0.25000000  1.0
  C  C223  1  0.73750000  0.78660000  0.25000000  1.0
  C  C224  1  0.21340000  0.95090000  0.25000000  1.0
  C  C225  1  0.95090000  0.73750000  0.75000000  1.0
  C  C226  1  0.26250000  0.21340000  0.75000000  1.0
  C  C227  1  0.78660000  0.04910000  0.75000000  1.0
  C  C228  1  0.26250000  0.04910000  0.25000000  1.0
  C  C229  1  0.78660000  0.73750000  0.25000000  1.0
  C  C230  1  0.95090000  0.21340000  0.25000000  1.0
  C  C231  1  0.73750000  0.95090000  0.75000000  1.0
  C  C232  1  0.21340000  0.26250000  0.75000000  1.0
  C  C233  1  0.04910000  0.78660000  0.75000000  1.0
  C  C234  1  0.00000000  0.26280000  0.03050000  1.0
  C  C235  1  0.00000000  0.35810000  0.08220000  1.0
  C  C236  1  0.73720000  0.73720000  0.03050000  1.0
  C  C237  1  0.64190000  0.64190000  0.08220000  1.0
  C  C238  1  0.26280000  0.00000000  0.03050000  1.0
  C  C239  1  0.35810000  0.00000000  0.08220000  1.0
  C  C240  1  0.00000000  0.73720000  0.53050000  1.0
  C  C241  1  0.00000000  0.64190000  0.58220000  1.0
  C  C242  1  0.26280000  0.26280000  0.53050000  1.0
  C  C243  1  0.35810000  0.35810000  0.58220000  1.0
  C  C244  1  0.73720000  0.00000000  0.53050000  1.0
  C  C245  1  0.64190000  0.00000000  0.58220000  1.0
  C  C246  1  0.26280000  0.00000000  0.46950000  1.0
  C  C247  1  0.35810000  0.00000000  0.41780000  1.0
  C  C248  1  0.73720000  0.73720000  0.46950000  1.0
  C  C249  1  0.64190000  0.64190000  0.41780000  1.0
  C  C250  1  0.00000000  0.26280000  0.46950000  1.0
  C  C251  1  0.00000000  0.35810000  0.41780000  1.0
  C  C252  1  0.73720000  0.00000000  0.96950000  1.0
  C  C253  1  0.64190000  0.00000000  0.91780000  1.0
  C  C254  1  0.26280000  0.26280000  0.96950000  1.0
  C  C255  1  0.35810000  0.35810000  0.91780000  1.0
  C  C256  1  0.00000000  0.73720000  0.96950000  1.0
  C  C257  1  0.00000000  0.64190000  0.91780000  1.0
  N  N258  1  0.09750000  0.51890000  0.94300000  1.0
  N  N259  1  0.21860000  0.57940000  0.89630000  1.0
  N  N260  1  0.10040000  0.45580000  0.91240000  1.0
  N  N261  1  0.20470000  0.45550000  0.85370000  1.0
  N  N262  1  0.48110000  0.57860000  0.94300000  1.0
  N  N263  1  0.42060000  0.63920000  0.89630000  1.0
  N  N264  1  0.54420000  0.64460000  0.91240000  1.0
  N  N265  1  0.54450000  0.74920000  0.85370000  1.0
  N  N266  1  0.42140000  0.90250000  0.94300000  1.0
  N  N267  1  0.36080000  0.78140000  0.89630000  1.0
  N  N268  1  0.35540000  0.89960000  0.91240000  1.0
  N  N269  1  0.25080000  0.79530000  0.85370000  1.0
  N  N270  1  0.90250000  0.48110000  0.44300000  1.0
  N  N271  1  0.78140000  0.42060000  0.39630000  1.0
  N  N272  1  0.89960000  0.54420000  0.41240000  1.0
  N  N273  1  0.79530000  0.54450000  0.35370000  1.0
  N  N274  1  0.51890000  0.42140000  0.44300000  1.0
  N  N275  1  0.57940000  0.36080000  0.39630000  1.0
  N  N276  1  0.45580000  0.35540000  0.41240000  1.0
  N  N277  1  0.45550000  0.25080000  0.35370000  1.0
  N  N278  1  0.57860000  0.09750000  0.44300000  1.0
  N  N279  1  0.63920000  0.21860000  0.39630000  1.0
  N  N280  1  0.64460000  0.10040000  0.41240000  1.0
  N  N281  1  0.74920000  0.20470000  0.35370000  1.0
  N  N282  1  0.51890000  0.09750000  0.55700000  1.0
  N  N283  1  0.57940000  0.21860000  0.60370000  1.0
  N  N284  1  0.45580000  0.10040000  0.58760000  1.0
  N  N285  1  0.45550000  0.20470000  0.64630000  1.0
  N  N286  1  0.57860000  0.48110000  0.55700000  1.0
  N  N287  1  0.63920000  0.42060000  0.60370000  1.0
  N  N288  1  0.64460000  0.54420000  0.58760000  1.0
  N  N289  1  0.74920000  0.54450000  0.64630000  1.0
  N  N290  1  0.90250000  0.42140000  0.55700000  1.0
  N  N291  1  0.78140000  0.36080000  0.60370000  1.0
  N  N292  1  0.89960000  0.35540000  0.58760000  1.0
  N  N293  1  0.79530000  0.25080000  0.64630000  1.0
  N  N294  1  0.48110000  0.90250000  0.05700000  1.0
  N  N295  1  0.42060000  0.78140000  0.10370000  1.0
  N  N296  1  0.54420000  0.89960000  0.08760000  1.0
  N  N297  1  0.54450000  0.79530000  0.14630000  1.0
  N  N298  1  0.42140000  0.51890000  0.05700000  1.0
  N  N299  1  0.36080000  0.57940000  0.10370000  1.0
  N  N300  1  0.35540000  0.45580000  0.08760000  1.0
  N  N301  1  0.25080000  0.45550000  0.14630000  1.0
  N  N302  1  0.09750000  0.57860000  0.05700000  1.0
  N  N303  1  0.21860000  0.63920000  0.10370000  1.0
  N  N304  1  0.10040000  0.64460000  0.08760000  1.0
  N  N305  1  0.20470000  0.74920000  0.14630000  1.0
  N  N306  1  0.90250000  0.48110000  0.05700000  1.0
  N  N307  1  0.78140000  0.42060000  0.10370000  1.0
  N  N308  1  0.89960000  0.54420000  0.08760000  1.0
  N  N309  1  0.79530000  0.54450000  0.14630000  1.0
  N  N310  1  0.51890000  0.42140000  0.05700000  1.0
  N  N311  1  0.57940000  0.36080000  0.10370000  1.0
  N  N312  1  0.45580000  0.35540000  0.08760000  1.0
  N  N313  1  0.45550000  0.25080000  0.14630000  1.0
  N  N314  1  0.57860000  0.09750000  0.05700000  1.0
  N  N315  1  0.63920000  0.21860000  0.10370000  1.0
  N  N316  1  0.64460000  0.10040000  0.08760000  1.0
  N  N317  1  0.74920000  0.20470000  0.14630000  1.0
  N  N318  1  0.09750000  0.51890000  0.55700000  1.0
  N  N319  1  0.21860000  0.57940000  0.60370000  1.0
  N  N320  1  0.10040000  0.45580000  0.58760000  1.0
  N  N321  1  0.20470000  0.45550000  0.64630000  1.0
  N  N322  1  0.48110000  0.57860000  0.55700000  1.0
  N  N323  1  0.42060000  0.63920000  0.60370000  1.0
  N  N324  1  0.54420000  0.64460000  0.58760000  1.0
  N  N325  1  0.54450000  0.74920000  0.64630000  1.0
  N  N326  1  0.42140000  0.90250000  0.55700000  1.0
  N  N327  1  0.36080000  0.78140000  0.60370000  1.0
  N  N328  1  0.35540000  0.89960000  0.58760000  1.0
  N  N329  1  0.25080000  0.79530000  0.64630000  1.0
  N  N330  1  0.48110000  0.90250000  0.44300000  1.0
  N  N331  1  0.42060000  0.78140000  0.39630000  1.0
  N  N332  1  0.54420000  0.89960000  0.41240000  1.0
  N  N333  1  0.54450000  0.79530000  0.35370000  1.0
  N  N334  1  0.42140000  0.51890000  0.44300000  1.0
  N  N335  1  0.36080000  0.57940000  0.39630000  1.0
  N  N336  1  0.35540000  0.45580000  0.41240000  1.0
  N  N337  1  0.25080000  0.45550000  0.35370000  1.0
  N  N338  1  0.09750000  0.57860000  0.44300000  1.0
  N  N339  1  0.21860000  0.63920000  0.39630000  1.0
  N  N340  1  0.10040000  0.64460000  0.41240000  1.0
  N  N341  1  0.20470000  0.74920000  0.35370000  1.0
  N  N342  1  0.51890000  0.09750000  0.94300000  1.0
  N  N343  1  0.57940000  0.21860000  0.89630000  1.0
  N  N344  1  0.45580000  0.10040000  0.91240000  1.0
  N  N345  1  0.45550000  0.20470000  0.85370000  1.0
  N  N346  1  0.57860000  0.48110000  0.94300000  1.0
  N  N347  1  0.63920000  0.42060000  0.89630000  1.0
  N  N348  1  0.64460000  0.54420000  0.91240000  1.0
  N  N349  1  0.74920000  0.54450000  0.85370000  1.0
  N  N350  1  0.90250000  0.42140000  0.94300000  1.0
  N  N351  1  0.78140000  0.36080000  0.89630000  1.0
  N  N352  1  0.89960000  0.35540000  0.91240000  1.0
  N  N353  1  0.79530000  0.25080000  0.85370000  1.0
  N  N354  1  0.00000000  0.28200000  0.08300000  1.0
  N  N355  1  0.00000000  0.32240000  0.99810000  1.0
  N  N356  1  0.00000000  0.38380000  0.03260000  1.0
  N  N357  1  0.00000000  0.39900000  0.12850000  1.0
  N  N358  1  0.71800000  0.71800000  0.08300000  1.0
  N  N359  1  0.67760000  0.67760000  0.99810000  1.0
  N  N360  1  0.61620000  0.61620000  0.03260000  1.0
  N  N361  1  0.60100000  0.60100000  0.12850000  1.0
  N  N362  1  0.28200000  0.00000000  0.08300000  1.0
  N  N363  1  0.32240000  0.00000000  0.99810000  1.0
  N  N364  1  0.38380000  0.00000000  0.03260000  1.0
  N  N365  1  0.39900000  0.00000000  0.12850000  1.0
  N  N366  1  0.00000000  0.71800000  0.58300000  1.0
  N  N367  1  0.00000000  0.67760000  0.49810000  1.0
  N  N368  1  0.00000000  0.61620000  0.53260000  1.0
  N  N369  1  0.00000000  0.60100000  0.62850000  1.0
  N  N370  1  0.28200000  0.28200000  0.58300000  1.0
  N  N371  1  0.32240000  0.32240000  0.49810000  1.0
  N  N372  1  0.38380000  0.38380000  0.53260000  1.0
  N  N373  1  0.39900000  0.39900000  0.62850000  1.0
  N  N374  1  0.71800000  0.00000000  0.58300000  1.0
  N  N375  1  0.67760000  0.00000000  0.49810000  1.0
  N  N376  1  0.61620000  0.00000000  0.53260000  1.0
  N  N377  1  0.60100000  0.00000000  0.62850000  1.0
  N  N378  1  0.28200000  0.00000000  0.41700000  1.0
  N  N379  1  0.32240000  0.00000000  0.50190000  1.0
  N  N380  1  0.38380000  0.00000000  0.46740000  1.0
  N  N381  1  0.39900000  0.00000000  0.37150000  1.0
  N  N382  1  0.71800000  0.71800000  0.41700000  1.0
  N  N383  1  0.67760000  0.67760000  0.50190000  1.0
  N  N384  1  0.61620000  0.61620000  0.46740000  1.0
  N  N385  1  0.60100000  0.60100000  0.37150000  1.0
  N  N386  1  0.00000000  0.28200000  0.41700000  1.0
  N  N387  1  0.00000000  0.32240000  0.50190000  1.0
  N  N388  1  0.00000000  0.38380000  0.46740000  1.0
  N  N389  1  0.00000000  0.39900000  0.37150000  1.0
  N  N390  1  0.71800000  0.00000000  0.91700000  1.0
  N  N391  1  0.67760000  0.00000000  0.00190000  1.0
  N  N392  1  0.61620000  0.00000000  0.96740000  1.0
  N  N393  1  0.60100000  0.00000000  0.87150000  1.0
  N  N394  1  0.28200000  0.28200000  0.91700000  1.0
  N  N395  1  0.32240000  0.32240000  0.00190000  1.0
  N  N396  1  0.38380000  0.38380000  0.96740000  1.0
  N  N397  1  0.39900000  0.39900000  0.87150000  1.0
  N  N398  1  0.00000000  0.71800000  0.91700000  1.0
  N  N399  1  0.00000000  0.67760000  0.00190000  1.0
  N  N400  1  0.00000000  0.61620000  0.96740000  1.0
  N  N401  1  0.00000000  0.60100000  0.87150000  1.0
  Cl  Cl402  1  0.00000000  0.33670000  0.82110000  1.0
  Cl  Cl403  1  0.66330000  0.66330000  0.82110000  1.0
  Cl  Cl404  1  0.33670000  0.00000000  0.82110000  1.0
  Cl  Cl405  1  0.00000000  0.66330000  0.32110000  1.0
  Cl  Cl406  1  0.33670000  0.33670000  0.32110000  1.0
  Cl  Cl407  1  0.66330000  0.00000000  0.32110000  1.0
  Cl  Cl408  1  0.33670000  0.00000000  0.67890000  1.0
  Cl  Cl409  1  0.66330000  0.66330000  0.67890000  1.0
  Cl  Cl410  1  0.00000000  0.33670000  0.67890000  1.0
  Cl  Cl411  1  0.66330000  0.00000000  0.17890000  1.0
  Cl  Cl412  1  0.33670000  0.33670000  0.17890000  1.0
  Cl  Cl413  1  0.00000000  0.66330000  0.17890000  1.0
  Cl  Cl414  1  0.00000000  0.00000000  0.25000000  1.0
  Cl  Cl415  1  0.00000000  0.00000000  0.75000000  1.0
  Cl  Cl416  1  0.00000000  0.00000000  0.00000000  1.0
  Cl  Cl417  1  0.00000000  0.00000000  0.50000000  1.0
  O  O418  1  0.07900000  0.16240000  0.12440000  1.0
  O  O419  1  0.08600000  0.28050000  0.20510000  1.0
  O  O420  1  0.19490000  0.28170000  0.09880000  1.0
  O  O421  1  0.83760000  0.91660000  0.12440000  1.0
  O  O422  1  0.71950000  0.80550000  0.20510000  1.0
  O  O423  1  0.71830000  0.91320000  0.09880000  1.0
  O  O424  1  0.08340000  0.92100000  0.12440000  1.0
  O  O425  1  0.19450000  0.91400000  0.20510000  1.0
  O  O426  1  0.08680000  0.80510000  0.09880000  1.0
  O  O427  1  0.92100000  0.83760000  0.62440000  1.0
  O  O428  1  0.91400000  0.71950000  0.70510000  1.0
  O  O429  1  0.80510000  0.71830000  0.59880000  1.0
  O  O430  1  0.16240000  0.08340000  0.62440000  1.0
  O  O431  1  0.28050000  0.19450000  0.70510000  1.0
  O  O432  1  0.28170000  0.08680000  0.59880000  1.0
  O  O433  1  0.91660000  0.07900000  0.62440000  1.0
  O  O434  1  0.80550000  0.08600000  0.70510000  1.0
  O  O435  1  0.91320000  0.19490000  0.59880000  1.0
  O  O436  1  0.16240000  0.07900000  0.37560000  1.0
  O  O437  1  0.28050000  0.08600000  0.29490000  1.0
  O  O438  1  0.28170000  0.19490000  0.40120000  1.0
  O  O439  1  0.91660000  0.83760000  0.37560000  1.0
  O  O440  1  0.80550000  0.71950000  0.29490000  1.0
  O  O441  1  0.91320000  0.71830000  0.40120000  1.0
  O  O442  1  0.92100000  0.08340000  0.37560000  1.0
  O  O443  1  0.91400000  0.19450000  0.29490000  1.0
  O  O444  1  0.80510000  0.08680000  0.40120000  1.0
  O  O445  1  0.83760000  0.92100000  0.87560000  1.0
  O  O446  1  0.71950000  0.91400000  0.79490000  1.0
  O  O447  1  0.71830000  0.80510000  0.90120000  1.0
  O  O448  1  0.08340000  0.16240000  0.87560000  1.0
  O  O449  1  0.19450000  0.28050000  0.79490000  1.0
  O  O450  1  0.08680000  0.28170000  0.90120000  1.0
  O  O451  1  0.07900000  0.91660000  0.87560000  1.0
  O  O452  1  0.08600000  0.80550000  0.79490000  1.0
  O  O453  1  0.19490000  0.91320000  0.90120000  1.0
  O  O454  1  0.92100000  0.83760000  0.87560000  1.0
  O  O455  1  0.91400000  0.71950000  0.79490000  1.0
  O  O456  1  0.80510000  0.71830000  0.90120000  1.0
  O  O457  1  0.16240000  0.08340000  0.87560000  1.0
  O  O458  1  0.28050000  0.19450000  0.79490000  1.0
  O  O459  1  0.28170000  0.08680000  0.90120000  1.0
  O  O460  1  0.91660000  0.07900000  0.87560000  1.0
  O  O461  1  0.80550000  0.08600000  0.79490000  1.0
  O  O462  1  0.91320000  0.19490000  0.90120000  1.0
  O  O463  1  0.07900000  0.16240000  0.37560000  1.0
  O  O464  1  0.08600000  0.28050000  0.29490000  1.0
  O  O465  1  0.19490000  0.28170000  0.40120000  1.0
  O  O466  1  0.83760000  0.91660000  0.37560000  1.0
  O  O467  1  0.71950000  0.80550000  0.29490000  1.0
  O  O468  1  0.71830000  0.91320000  0.40120000  1.0
  O  O469  1  0.08340000  0.92100000  0.37560000  1.0
  O  O470  1  0.19450000  0.91400000  0.29490000  1.0
  O  O471  1  0.08680000  0.80510000  0.40120000  1.0
  O  O472  1  0.83760000  0.92100000  0.62440000  1.0
  O  O473  1  0.71950000  0.91400000  0.70510000  1.0
  O  O474  1  0.71830000  0.80510000  0.59880000  1.0
  O  O475  1  0.08340000  0.16240000  0.62440000  1.0
  O  O476  1  0.19450000  0.28050000  0.70510000  1.0
  O  O477  1  0.08680000  0.28170000  0.59880000  1.0
  O  O478  1  0.07900000  0.91660000  0.62440000  1.0
  O  O479  1  0.08600000  0.80550000  0.70510000  1.0
  O  O480  1  0.19490000  0.91320000  0.59880000  1.0
  O  O481  1  0.16240000  0.07900000  0.12440000  1.0
  O  O482  1  0.28050000  0.08600000  0.20510000  1.0
  O  O483  1  0.28170000  0.19490000  0.09880000  1.0
  O  O484  1  0.91660000  0.83760000  0.12440000  1.0
  O  O485  1  0.80550000  0.71950000  0.20510000  1.0
  O  O486  1  0.91320000  0.71830000  0.09880000  1.0
  O  O487  1  0.92100000  0.08340000  0.12440000  1.0
  O  O488  1  0.91400000  0.19450000  0.20510000  1.0
  O  O489  1  0.80510000  0.08680000  0.09880000  1.0
