# generated using pymatgen
data_Zn4Mo12H12(C7O10)3
_symmetry_space_group_name_H-M   'P 1'
_cell_length_a   21.68540000
_cell_length_b   29.72760000
_cell_length_c   34.82860000
_cell_angle_alpha   90.00000000
_cell_angle_beta   96.34200000
_cell_angle_gamma   90.00000000
_symmetry_Int_Tables_number   1
_chemical_formula_structural   Zn4Mo12H12(C7O10)3
_chemical_formula_sum   'Zn32 Mo96 H96 C168 O240'
_cell_volume   22315.02428024
_cell_formula_units_Z   8
loop_
 _symmetry_equiv_pos_site_id
 _symmetry_equiv_pos_as_xyz
  1  'x, y, z'
loop_
 _atom_site_type_symbol
 _atom_site_label
 _atom_site_symmetry_multiplicity
 _atom_site_fract_x
 _atom_site_fract_y
 _atom_site_fract_z
 _atom_site_occupancy
  Zn  Zn0  1  0.06743000  0.02877000  0.98320000  1.0
  Zn  Zn1  1  0.06030000  0.86935000  0.86955000  1.0
  Zn  Zn2  1  0.20399000  0.84881000  0.01832000  1.0
  Zn  Zn3  1  0.28811000  0.99119000  0.90655000  1.0
  Zn  Zn4  1  0.93444000  0.97418000  0.52336000  1.0
  Zn  Zn5  1  0.92808000  0.15945000  0.60283000  1.0
  Zn  Zn6  1  0.78634000  0.13614000  0.45497000  1.0
  Zn  Zn7  1  0.71119000  0.02648000  0.59029000  1.0
  Zn  Zn8  1  0.43257000  0.52877000  0.51680000  1.0
  Zn  Zn9  1  0.43970000  0.36935000  0.63045000  1.0
  Zn  Zn10  1  0.29601000  0.34881000  0.48168000  1.0
  Zn  Zn11  1  0.21189000  0.49119000  0.59345000  1.0
  Zn  Zn12  1  0.56556000  0.47418000  0.97664000  1.0
  Zn  Zn13  1  0.57192000  0.65945000  0.89717000  1.0
  Zn  Zn14  1  0.71366000  0.63614000  0.04503000  1.0
  Zn  Zn15  1  0.78881000  0.52648000  0.90971000  1.0
  Zn  Zn16  1  0.93257000  0.97123000  0.01680000  1.0
  Zn  Zn17  1  0.93970000  0.13065000  0.13045000  1.0
  Zn  Zn18  1  0.79601000  0.15119000  0.98168000  1.0
  Zn  Zn19  1  0.71189000  0.00881000  0.09345000  1.0
  Zn  Zn20  1  0.06556000  0.02582000  0.47664000  1.0
  Zn  Zn21  1  0.07192000  0.84055000  0.39717000  1.0
  Zn  Zn22  1  0.21366000  0.86386000  0.54503000  1.0
  Zn  Zn23  1  0.28881000  0.97352000  0.40971000  1.0
  Zn  Zn24  1  0.56743000  0.47123000  0.48320000  1.0
  Zn  Zn25  1  0.56030000  0.63065000  0.36955000  1.0
  Zn  Zn26  1  0.70399000  0.65119000  0.51832000  1.0
  Zn  Zn27  1  0.78811000  0.50881000  0.40655000  1.0
  Zn  Zn28  1  0.43444000  0.52582000  0.02336000  1.0
  Zn  Zn29  1  0.42808000  0.34055000  0.10283000  1.0
  Zn  Zn30  1  0.28634000  0.36386000  0.95497000  1.0
  Zn  Zn31  1  0.21119000  0.47352000  0.09029000  1.0
  Mo  Mo32  1  0.07166000  0.91720000  0.03051000  1.0
  Mo  Mo33  1  0.98584000  0.92903000  0.93985000  1.0
  Mo  Mo34  1  0.22927000  0.04081000  0.98665000  1.0
  Mo  Mo35  1  0.14997000  0.05207000  0.90438000  1.0
  Mo  Mo36  1  0.01962000  0.98603000  0.88904000  1.0
  Mo  Mo37  1  0.17295000  0.96412000  0.04786000  1.0
  Mo  Mo38  1  0.30894000  0.94157000  0.00033000  1.0
  Mo  Mo39  1  0.06175000  0.83074000  0.96494000  1.0
  Mo  Mo40  1  0.18108000  0.81127000  0.92153000  1.0
  Mo  Mo41  1  0.30746000  0.87758000  0.94893000  1.0
  Mo  Mo42  1  0.21815000  0.89054000  0.85620000  1.0
  Mo  Mo43  1  0.15478000  0.96407000  0.84097000  1.0
  Mo  Mo44  1  0.92250000  0.07002000  0.45573000  1.0
  Mo  Mo45  1  0.00845000  0.08406000  0.54601000  1.0
  Mo  Mo46  1  0.97789000  0.04146000  0.60666000  1.0
  Mo  Mo47  1  0.82519000  0.01709000  0.44754000  1.0
  Mo  Mo48  1  0.85336000  0.96974000  0.60553000  1.0
  Mo  Mo49  1  0.92633000  0.17198000  0.50277000  1.0
  Mo  Mo50  1  0.80347000  0.19942000  0.53982000  1.0
  Mo  Mo51  1  0.77443000  0.95796000  0.52310000  1.0
  Mo  Mo52  1  0.68684000  0.04881000  0.48992000  1.0
  Mo  Mo53  1  0.83997000  0.07241000  0.64873000  1.0
  Mo  Mo54  1  0.77169000  0.13875000  0.61886000  1.0
  Mo  Mo55  1  0.68166000  0.12503000  0.52673000  1.0
  Mo  Mo56  1  0.42834000  0.41720000  0.46949000  1.0
  Mo  Mo57  1  0.51416000  0.42903000  0.56015000  1.0
  Mo  Mo58  1  0.27073000  0.54081000  0.51335000  1.0
  Mo  Mo59  1  0.35003000  0.55207000  0.59562000  1.0
  Mo  Mo60  1  0.48038000  0.48603000  0.61096000  1.0
  Mo  Mo61  1  0.32705000  0.46412000  0.45214000  1.0
  Mo  Mo62  1  0.19106000  0.44157000  0.49967000  1.0
  Mo  Mo63  1  0.43825000  0.33074000  0.53506000  1.0
  Mo  Mo64  1  0.31892000  0.31127000  0.57847000  1.0
  Mo  Mo65  1  0.19254000  0.37758000  0.55107000  1.0
  Mo  Mo66  1  0.28185000  0.39054000  0.64380000  1.0
  Mo  Mo67  1  0.34522000  0.46407000  0.65903000  1.0
  Mo  Mo68  1  0.57750000  0.57002000  0.04427000  1.0
  Mo  Mo69  1  0.49155000  0.58406000  0.95399000  1.0
  Mo  Mo70  1  0.52211000  0.54146000  0.89334000  1.0
  Mo  Mo71  1  0.67481000  0.51709000  0.05246000  1.0
  Mo  Mo72  1  0.64664000  0.46974000  0.89447000  1.0
  Mo  Mo73  1  0.57367000  0.67198000  0.99723000  1.0
  Mo  Mo74  1  0.69653000  0.69942000  0.96018000  1.0
  Mo  Mo75  1  0.72557000  0.45796000  0.97690000  1.0
  Mo  Mo76  1  0.81316000  0.54881000  0.01008000  1.0
  Mo  Mo77  1  0.66003000  0.57241000  0.85127000  1.0
  Mo  Mo78  1  0.72831000  0.63875000  0.88114000  1.0
  Mo  Mo79  1  0.81834000  0.62503000  0.97327000  1.0
  Mo  Mo80  1  0.92834000  0.08280000  0.96949000  1.0
  Mo  Mo81  1  0.01416000  0.07097000  0.06015000  1.0
  Mo  Mo82  1  0.77073000  0.95919000  0.01335000  1.0
  Mo  Mo83  1  0.85003000  0.94793000  0.09562000  1.0
  Mo  Mo84  1  0.98038000  0.01397000  0.11096000  1.0
  Mo  Mo85  1  0.82705000  0.03588000  0.95214000  1.0
  Mo  Mo86  1  0.69106000  0.05843000  0.99967000  1.0
  Mo  Mo87  1  0.93825000  0.16926000  0.03506000  1.0
  Mo  Mo88  1  0.81892000  0.18873000  0.07847000  1.0
  Mo  Mo89  1  0.69254000  0.12242000  0.05108000  1.0
  Mo  Mo90  1  0.78185000  0.10946000  0.14380000  1.0
  Mo  Mo91  1  0.84522000  0.03593000  0.15903000  1.0
  Mo  Mo92  1  0.07750000  0.92998000  0.54427000  1.0
  Mo  Mo93  1  0.99155000  0.91594000  0.45399000  1.0
  Mo  Mo94  1  0.02211000  0.95854000  0.39334000  1.0
  Mo  Mo95  1  0.17481000  0.98291000  0.55246000  1.0
  Mo  Mo96  1  0.14664000  0.03026000  0.39447000  1.0
  Mo  Mo97  1  0.07367000  0.82802000  0.49724000  1.0
  Mo  Mo98  1  0.19653000  0.80058000  0.46018000  1.0
  Mo  Mo99  1  0.22557000  0.04204000  0.47690000  1.0
  Mo  Mo100  1  0.31316000  0.95119000  0.51008000  1.0
  Mo  Mo101  1  0.16003000  0.92759000  0.35127000  1.0
  Mo  Mo102  1  0.22831000  0.86125000  0.38114000  1.0
  Mo  Mo103  1  0.31834000  0.87497000  0.47327000  1.0
  Mo  Mo104  1  0.57166000  0.58280000  0.53051000  1.0
  Mo  Mo105  1  0.48584000  0.57097000  0.43985000  1.0
  Mo  Mo106  1  0.72927000  0.45919000  0.48665000  1.0
  Mo  Mo107  1  0.64997000  0.44793000  0.40438000  1.0
  Mo  Mo108  1  0.51962000  0.51397000  0.38904000  1.0
  Mo  Mo109  1  0.67295000  0.53588000  0.54786000  1.0
  Mo  Mo110  1  0.80894000  0.55843000  0.50033000  1.0
  Mo  Mo111  1  0.56175000  0.66926000  0.46494000  1.0
  Mo  Mo112  1  0.68108000  0.68873000  0.42153000  1.0
  Mo  Mo113  1  0.80746000  0.62242000  0.44892000  1.0
  Mo  Mo114  1  0.71815000  0.60946000  0.35620000  1.0
  Mo  Mo115  1  0.65478000  0.53593000  0.34097000  1.0
  Mo  Mo116  1  0.42250000  0.42998000  0.95573000  1.0
  Mo  Mo117  1  0.50845000  0.41594000  0.04601000  1.0
  Mo  Mo118  1  0.47789000  0.45854000  0.10666000  1.0
  Mo  Mo119  1  0.32519000  0.48291000  0.94754000  1.0
  Mo  Mo120  1  0.35336000  0.53026000  0.10553000  1.0
  Mo  Mo121  1  0.42633000  0.32802000  0.00277000  1.0
  Mo  Mo122  1  0.30347000  0.30058000  0.03982000  1.0
  Mo  Mo123  1  0.27443000  0.54204000  0.02310000  1.0
  Mo  Mo124  1  0.18684000  0.45119000  0.98992000  1.0
  Mo  Mo125  1  0.33997000  0.42759000  0.14873000  1.0
  Mo  Mo126  1  0.27169000  0.36125000  0.11886000  1.0
  Mo  Mo127  1  0.18166000  0.37497000  0.02673000  1.0
  H  H128  1  0.47830000  0.72250000  0.28790000  1.0
  H  H129  1  0.42620000  0.76370000  0.23840000  1.0
  H  H130  1  0.37060000  0.65120000  0.18530000  1.0
  H  H131  1  0.41930000  0.61060000  0.23620000  1.0
  H  H132  1  0.40330000  0.79710000  0.19150000  1.0
  H  H133  1  0.35510000  0.84320000  0.14370000  1.0
  H  H134  1  0.26630000  0.73790000  0.09630000  1.0
  H  H135  1  0.31350000  0.69300000  0.14520000  1.0
  H  H136  1  0.63150000  0.98290000  0.68900000  1.0
  H  H137  1  0.57940000  0.97110000  0.74220000  1.0
  H  H138  1  0.46870000  0.07370000  0.71130000  1.0
  H  H139  1  0.52350000  0.08850000  0.66040000  1.0
  H  H140  1  0.49960000  0.94510000  0.76910000  1.0
  H  H141  1  0.44200000  0.92920000  0.81950000  1.0
  H  H142  1  0.40100000  0.05840000  0.82730000  1.0
  H  H143  1  0.45410000  0.07330000  0.77520000  1.0
  H  H144  1  0.07520000  0.16130000  0.72820000  1.0
  H  H145  1  0.12170000  0.20580000  0.77750000  1.0
  H  H146  1  0.00950000  0.30620000  0.74450000  1.0
  H  H147  1  0.96460000  0.26300000  0.69320000  1.0
  H  H148  1  0.11830000  0.23690000  0.83590000  1.0
  H  H149  1  0.17250000  0.27860000  0.88480000  1.0
  H  H150  1  0.15550000  0.38760000  0.81920000  1.0
  H  H151  1  0.09880000  0.34720000  0.77120000  1.0
  H  H152  1  0.02170000  0.22250000  0.21210000  1.0
  H  H153  1  0.07380000  0.26370000  0.26160000  1.0
  H  H154  1  0.12940000  0.15120000  0.31470000  1.0
  H  H155  1  0.08070000  0.11060000  0.26380000  1.0
  H  H156  1  0.09670000  0.29710000  0.30850000  1.0
  H  H157  1  0.14490000  0.34320000  0.35630000  1.0
  H  H158  1  0.23370000  0.23790000  0.40370000  1.0
  H  H159  1  0.18650000  0.19300000  0.35480000  1.0
  H  H160  1  0.86850000  0.48290000  0.81100000  1.0
  H  H161  1  0.92060000  0.47110000  0.75780000  1.0
  H  H162  1  0.03130000  0.57370000  0.78870000  1.0
  H  H163  1  0.97650000  0.58850000  0.83960000  1.0
  H  H164  1  0.00040000  0.44510000  0.73090000  1.0
  H  H165  1  0.05800000  0.42920000  0.68050000  1.0
  H  H166  1  0.09900000  0.55840000  0.67270000  1.0
  H  H167  1  0.04590000  0.57330000  0.72480000  1.0
  H  H168  1  0.42480000  0.66130000  0.77180000  1.0
  H  H169  1  0.37830000  0.70580000  0.72250000  1.0
  H  H170  1  0.49050000  0.80620000  0.75550000  1.0
  H  H171  1  0.53540000  0.76300000  0.80680000  1.0
  H  H172  1  0.38170000  0.73690000  0.66410000  1.0
  H  H173  1  0.32750000  0.77860000  0.61520000  1.0
  H  H174  1  0.34450000  0.88760000  0.68080000  1.0
  H  H175  1  0.40120000  0.84720000  0.72880000  1.0
  H  H176  1  0.52170000  0.27750000  0.71210000  1.0
  H  H177  1  0.57380000  0.23630000  0.76160000  1.0
  H  H178  1  0.62940000  0.34880000  0.81470000  1.0
  H  H179  1  0.58070000  0.38940000  0.76380000  1.0
  H  H180  1  0.59670000  0.20290000  0.80850000  1.0
  H  H181  1  0.64490000  0.15680000  0.85630000  1.0
  H  H182  1  0.73370000  0.26210000  0.90370000  1.0
  H  H183  1  0.68650000  0.30700000  0.85480000  1.0
  H  H184  1  0.36850000  0.01710000  0.31100000  1.0
  H  H185  1  0.42060000  0.02890000  0.25780000  1.0
  H  H186  1  0.53130000  0.92630000  0.28870000  1.0
  H  H187  1  0.47650000  0.91150000  0.33960000  1.0
  H  H188  1  0.50040000  0.05490000  0.23090000  1.0
  H  H189  1  0.55800000  0.07080000  0.18050000  1.0
  H  H190  1  0.59900000  0.94160000  0.17270000  1.0
  H  H191  1  0.54590000  0.92670000  0.22480000  1.0
  H  H192  1  0.92480000  0.83870000  0.27180000  1.0
  H  H193  1  0.87830000  0.79420000  0.22250000  1.0
  H  H194  1  0.99050000  0.69380000  0.25550000  1.0
  H  H195  1  0.03540000  0.73700000  0.30680000  1.0
  H  H196  1  0.88170000  0.76310000  0.16410000  1.0
  H  H197  1  0.82750000  0.72140000  0.11520000  1.0
  H  H198  1  0.84450000  0.61240000  0.18080000  1.0
  H  H199  1  0.90120000  0.65280000  0.22880000  1.0
  H  H200  1  0.97830000  0.77750000  0.78790000  1.0
  H  H201  1  0.92620000  0.73630000  0.73840000  1.0
  H  H202  1  0.87060000  0.84880000  0.68530000  1.0
  H  H203  1  0.91930000  0.88940000  0.73620000  1.0
  H  H204  1  0.90330000  0.70290000  0.69150000  1.0
  H  H205  1  0.85510000  0.65680000  0.64370000  1.0
  H  H206  1  0.76630000  0.76210000  0.59630000  1.0
  H  H207  1  0.81350000  0.80700000  0.64520000  1.0
  H  H208  1  0.13150000  0.51710000  0.18900000  1.0
  H  H209  1  0.07940000  0.52890000  0.24220000  1.0
  H  H210  1  0.96870000  0.42630000  0.21130000  1.0
  H  H211  1  0.02350000  0.41150000  0.16040000  1.0
  H  H212  1  0.99960000  0.55490000  0.26910000  1.0
  H  H213  1  0.94200000  0.57080000  0.31950000  1.0
  H  H214  1  0.90100000  0.44160000  0.32730000  1.0
  H  H215  1  0.95410000  0.42670000  0.27520000  1.0
  H  H216  1  0.57520000  0.33870000  0.22820000  1.0
  H  H217  1  0.62170000  0.29420000  0.27750000  1.0
  H  H218  1  0.50950000  0.19380000  0.24450000  1.0
  H  H219  1  0.46460000  0.23700000  0.19320000  1.0
  H  H220  1  0.61830000  0.26310000  0.33590000  1.0
  H  H221  1  0.67250000  0.22140000  0.38480000  1.0
  H  H222  1  0.65550000  0.11240000  0.31920000  1.0
  H  H223  1  0.59880000  0.15280000  0.27120000  1.0
  C  C224  1  0.48960000  0.63580000  0.30010000  1.0
  C  C225  1  0.45470000  0.66220000  0.26720000  1.0
  C  C226  1  0.45630000  0.70750000  0.26730000  1.0
  C  C227  1  0.42540000  0.73250000  0.23710000  1.0
  C  C228  1  0.39400000  0.71200000  0.20560000  1.0
  C  C229  1  0.39210000  0.66630000  0.20600000  1.0
  C  C230  1  0.42190000  0.64180000  0.23670000  1.0
  C  C231  1  0.36260000  0.74040000  0.17370000  1.0
  C  C232  1  0.37470000  0.78470000  0.17260000  1.0
  C  C233  1  0.34570000  0.81270000  0.14370000  1.0
  C  C234  1  0.30400000  0.79560000  0.11570000  1.0
  C  C235  1  0.29320000  0.75070000  0.11590000  1.0
  C  C236  1  0.32230000  0.72370000  0.14530000  1.0
  C  C237  1  0.27240000  0.82710000  0.08530000  1.0
  C  C238  1  0.61810000  0.04590000  0.63480000  1.0
  C  C239  1  0.58240000  0.03630000  0.66840000  1.0
  C  C240  1  0.59870000  0.00170000  0.69340000  1.0
  C  C241  1  0.56700000  0.99440000  0.72530000  1.0
  C  C242  1  0.51790000  0.02070000  0.73250000  1.0
  C  C243  1  0.50220000  0.05540000  0.70730000  1.0
  C  C244  1  0.53430000  0.06390000  0.67630000  1.0
  C  C245  1  0.48270000  0.01130000  0.76590000  1.0
  C  C246  1  0.47900000  0.96840000  0.78030000  1.0
  C  C247  1  0.44530000  0.95870000  0.81100000  1.0
  C  C248  1  0.41710000  0.99270000  0.82870000  1.0
  C  C249  1  0.42040000  0.03510000  0.81540000  1.0
  C  C250  1  0.45280000  0.04390000  0.78410000  1.0
  C  C251  1  0.38050000  0.98050000  0.86210000  1.0
  C  C252  1  0.98780000  0.17790000  0.67360000  1.0
  C  C253  1  0.01560000  0.20730000  0.70610000  1.0
  C  C254  1  0.06160000  0.19070000  0.73100000  1.0
  C  C255  1  0.08910000  0.21760000  0.76090000  1.0
  C  C256  1  0.07030000  0.26000000  0.76650000  1.0
  C  C257  1  0.02340000  0.27690000  0.74130000  1.0
  C  C258  1  0.99600000  0.25090000  0.71060000  1.0
  C  C259  1  0.10210000  0.28800000  0.79810000  1.0
  C  C260  1  0.12530000  0.26740000  0.83230000  1.0
  C  C261  1  0.15910000  0.29220000  0.86130000  1.0
  C  C262  1  0.17260000  0.33600000  0.85570000  1.0
  C  C263  1  0.14860000  0.35700000  0.82250000  1.0
  C  C264  1  0.11420000  0.33270000  0.79400000  1.0
  C  C265  1  0.21290000  0.36100000  0.88680000  1.0
  C  C266  1  0.01040000  0.13580000  0.19990000  1.0
  C  C267  1  0.04530000  0.16220000  0.23280000  1.0
  C  C268  1  0.04370000  0.20750000  0.23270000  1.0
  C  C269  1  0.07460000  0.23250000  0.26290000  1.0
  C  C270  1  0.10600000  0.21200000  0.29440000  1.0
  C  C271  1  0.10790000  0.16630000  0.29400000  1.0
  C  C272  1  0.07810000  0.14180000  0.26330000  1.0
  C  C273  1  0.13740000  0.24040000  0.32630000  1.0
  C  C274  1  0.12530000  0.28470000  0.32740000  1.0
  C  C275  1  0.15430000  0.31270000  0.35630000  1.0
  C  C276  1  0.19600000  0.29560000  0.38430000  1.0
  C  C277  1  0.20680000  0.25070000  0.38410000  1.0
  C  C278  1  0.17770000  0.22370000  0.35470000  1.0
  C  C279  1  0.22760000  0.32710000  0.41470000  1.0
  C  C280  1  0.88190000  0.54590000  0.86520000  1.0
  C  C281  1  0.91760000  0.53630000  0.83160000  1.0
  C  C282  1  0.90130000  0.50170000  0.80660000  1.0
  C  C283  1  0.93300000  0.49440000  0.77470000  1.0
  C  C284  1  0.98210000  0.52070000  0.76750000  1.0
  C  C285  1  0.99780000  0.55540000  0.79270000  1.0
  C  C286  1  0.96570000  0.56390000  0.82370000  1.0
  C  C287  1  0.01730000  0.51130000  0.73410000  1.0
  C  C288  1  0.02100000  0.46840000  0.71970000  1.0
  C  C289  1  0.05470000  0.45870000  0.68900000  1.0
  C  C290  1  0.08290000  0.49270000  0.67130000  1.0
  C  C291  1  0.07960000  0.53510000  0.68460000  1.0
  C  C292  1  0.04720000  0.54390000  0.71590000  1.0
  C  C293  1  0.11950000  0.48050000  0.63790000  1.0
  C  C294  1  0.51220000  0.67790000  0.82640000  1.0
  C  C295  1  0.48440000  0.70730000  0.79390000  1.0
  C  C296  1  0.43840000  0.69070000  0.76900000  1.0
  C  C297  1  0.41090000  0.71760000  0.73910000  1.0
  C  C298  1  0.42970000  0.76000000  0.73350000  1.0
  C  C299  1  0.47660000  0.77690000  0.75870000  1.0
  C  C300  1  0.50400000  0.75090000  0.78940000  1.0
  C  C301  1  0.39790000  0.78800000  0.70190000  1.0
  C  C302  1  0.37470000  0.76740000  0.66770000  1.0
  C  C303  1  0.34090000  0.79220000  0.63870000  1.0
  C  C304  1  0.32740000  0.83600000  0.64430000  1.0
  C  C305  1  0.35140000  0.85700000  0.67750000  1.0
  C  C306  1  0.38580000  0.83270000  0.70600000  1.0
  C  C307  1  0.28710000  0.86100000  0.61320000  1.0
  C  C308  1  0.51040000  0.36420000  0.69990000  1.0
  C  C309  1  0.54530000  0.33780000  0.73280000  1.0
  C  C310  1  0.54370000  0.29250000  0.73270000  1.0
  C  C311  1  0.57460000  0.26750000  0.76290000  1.0
  C  C312  1  0.60600000  0.28800000  0.79440000  1.0
  C  C313  1  0.60790000  0.33370000  0.79400000  1.0
  C  C314  1  0.57810000  0.35820000  0.76330000  1.0
  C  C315  1  0.63740000  0.25960000  0.82630000  1.0
  C  C316  1  0.62530000  0.21530000  0.82740000  1.0
  C  C317  1  0.65430000  0.18730000  0.85630000  1.0
  C  C318  1  0.69600000  0.20440000  0.88430000  1.0
  C  C319  1  0.70680000  0.24930000  0.88410000  1.0
  C  C320  1  0.67770000  0.27630000  0.85470000  1.0
  C  C321  1  0.72760000  0.17290000  0.91470000  1.0
  C  C322  1  0.38190000  0.95410000  0.36520000  1.0
  C  C323  1  0.41760000  0.96370000  0.33160000  1.0
  C  C324  1  0.40130000  0.99830000  0.30660000  1.0
  C  C325  1  0.43300000  0.00560000  0.27470000  1.0
  C  C326  1  0.48210000  0.97930000  0.26750000  1.0
  C  C327  1  0.49780000  0.94460000  0.29270000  1.0
  C  C328  1  0.46570000  0.93610000  0.32370000  1.0
  C  C329  1  0.51730000  0.98870000  0.23410000  1.0
  C  C330  1  0.52100000  0.03160000  0.21970000  1.0
  C  C331  1  0.55470000  0.04130000  0.18900000  1.0
  C  C332  1  0.58290000  0.00730000  0.17130000  1.0
  C  C333  1  0.57960000  0.96490000  0.18460000  1.0
  C  C334  1  0.54720000  0.95610000  0.21590000  1.0
  C  C335  1  0.61950000  0.01950000  0.13790000  1.0
  C  C336  1  0.01220000  0.82210000  0.32640000  1.0
  C  C337  1  0.98440000  0.79270000  0.29390000  1.0
  C  C338  1  0.93840000  0.80930000  0.26900000  1.0
  C  C339  1  0.91090000  0.78240000  0.23910000  1.0
  C  C340  1  0.92970000  0.74000000  0.23350000  1.0
  C  C341  1  0.97660000  0.72310000  0.25870000  1.0
  C  C342  1  0.00400000  0.74910000  0.28940000  1.0
  C  C343  1  0.89790000  0.71200000  0.20190000  1.0
  C  C344  1  0.87470000  0.73260000  0.16770000  1.0
  C  C345  1  0.84090000  0.70780000  0.13870000  1.0
  C  C346  1  0.82740000  0.66400000  0.14430000  1.0
  C  C347  1  0.85140000  0.64300000  0.17750000  1.0
  C  C348  1  0.88580000  0.66730000  0.20600000  1.0
  C  C349  1  0.78710000  0.63900000  0.11320000  1.0
  C  C350  1  0.98960000  0.86420000  0.80010000  1.0
  C  C351  1  0.95470000  0.83780000  0.76720000  1.0
  C  C352  1  0.95630000  0.79250000  0.76730000  1.0
  C  C353  1  0.92540000  0.76750000  0.73710000  1.0
  C  C354  1  0.89400000  0.78800000  0.70560000  1.0
  C  C355  1  0.89210000  0.83370000  0.70600000  1.0
  C  C356  1  0.92190000  0.85820000  0.73670000  1.0
  C  C357  1  0.86260000  0.75960000  0.67370000  1.0
  C  C358  1  0.87470000  0.71530000  0.67260000  1.0
  C  C359  1  0.84570000  0.68730000  0.64370000  1.0
  C  C360  1  0.80400000  0.70440000  0.61570000  1.0
  C  C361  1  0.79320000  0.74930000  0.61590000  1.0
  C  C362  1  0.82230000  0.77630000  0.64530000  1.0
  C  C363  1  0.77240000  0.67290000  0.58530000  1.0
  C  C364  1  0.11810000  0.45410000  0.13480000  1.0
  C  C365  1  0.08240000  0.46370000  0.16840000  1.0
  C  C366  1  0.09870000  0.49830000  0.19340000  1.0
  C  C367  1  0.06700000  0.50560000  0.22530000  1.0
  C  C368  1  0.01790000  0.47930000  0.23250000  1.0
  C  C369  1  0.00220000  0.44460000  0.20730000  1.0
  C  C370  1  0.03430000  0.43610000  0.17630000  1.0
  C  C371  1  0.98270000  0.48870000  0.26590000  1.0
  C  C372  1  0.97900000  0.53160000  0.28030000  1.0
  C  C373  1  0.94530000  0.54130000  0.31100000  1.0
  C  C374  1  0.91710000  0.50730000  0.32870000  1.0
  C  C375  1  0.92040000  0.46490000  0.31540000  1.0
  C  C376  1  0.95280000  0.45610000  0.28410000  1.0
  C  C377  1  0.88050000  0.51950000  0.36210000  1.0
  C  C378  1  0.48780000  0.32210000  0.17360000  1.0
  C  C379  1  0.51560000  0.29270000  0.20610000  1.0
  C  C380  1  0.56160000  0.30930000  0.23100000  1.0
  C  C381  1  0.58910000  0.28240000  0.26090000  1.0
  C  C382  1  0.57030000  0.24000000  0.26650000  1.0
  C  C383  1  0.52340000  0.22310000  0.24130000  1.0
  C  C384  1  0.49600000  0.24910000  0.21060000  1.0
  C  C385  1  0.60210000  0.21200000  0.29810000  1.0
  C  C386  1  0.62530000  0.23260000  0.33230000  1.0
  C  C387  1  0.65910000  0.20780000  0.36130000  1.0
  C  C388  1  0.67260000  0.16400000  0.35570000  1.0
  C  C389  1  0.64860000  0.14300000  0.32250000  1.0
  C  C390  1  0.61420000  0.16730000  0.29400000  1.0
  C  C391  1  0.71290000  0.13900000  0.38680000  1.0
  O  O392  1  0.00928000  0.07116000  0.00228000  1.0
  O  O393  1  0.09197000  0.98026000  0.02131000  1.0
  O  O394  1  0.01820000  0.99019000  0.94474000  1.0
  O  O395  1  0.14250000  0.04847000  0.96142000  1.0
  O  O396  1  0.01600000  0.92047000  0.88942000  1.0
  O  O397  1  0.99400000  0.86128000  0.94300000  1.0
  O  O398  1  0.15370000  0.82198000  0.97424000  1.0
  O  O399  1  0.09280000  0.83044000  0.91217000  1.0
  O  O400  1  0.23410000  0.03336000  0.92956000  1.0
  O  O401  1  0.06180000  0.85231000  0.01343000  1.0
  O  O402  1  0.19870000  0.02522000  0.03094000  1.0
  O  O403  1  0.26120000  0.81951000  0.94261000  1.0
  O  O404  1  0.31340000  0.94336000  0.94460000  1.0
  O  O405  1  0.27490000  0.88075000  0.99876000  1.0
  O  O406  1  0.06650000  0.04389000  0.89509000  1.0
  O  O407  1  0.12890000  0.90185000  0.84800000  1.0
  O  O408  1  0.26640000  0.94696000  0.05023000  1.0
  O  O409  1  0.23760000  0.95363000  0.86700000  1.0
  O  O410  1  0.30150000  0.00835000  0.99521000  1.0
  O  O411  1  0.30100000  0.87913000  0.88961000  1.0
  O  O412  1  0.06010000  0.97665000  0.83794000  1.0
  O  O413  1  0.15954000  0.89989000  0.03889000  1.0
  O  O414  1  0.16940000  0.02699000  0.85932000  1.0
  O  O415  1  0.19300000  0.82957000  0.87259000  1.0
  O  O416  1  0.49670000  0.59541000  0.29683000  1.0
  O  O417  1  0.50940000  0.66042000  0.32916000  1.0
  O  O418  1  0.23750000  0.80832000  0.05839000  1.0
  O  O419  1  0.28160000  0.86720000  0.08878000  1.0
  O  O420  1  0.61750000  0.08430000  0.62169000  1.0
  O  O421  1  0.35300000  0.01300000  0.87736000  1.0
  O  O422  1  0.64750000  0.01172000  0.62242000  1.0
  O  O423  1  0.37940000  0.94060000  0.87150000  1.0
  O  O424  1  0.90728000  0.01068000  0.47678000  1.0
  O  O425  1  0.83354000  0.08222000  0.44384000  1.0
  O  O426  1  0.99616000  0.93048000  0.51047000  1.0
  O  O427  1  0.92770000  0.13775000  0.45967000  1.0
  O  O428  1  0.98002000  0.02263000  0.55319000  1.0
  O  O429  1  0.97700000  0.10534000  0.59337000  1.0
  O  O430  1  0.99570000  0.14905000  0.52966000  1.0
  O  O431  1  0.93580000  0.98205000  0.61260000  1.0
  O  O432  1  0.93410000  0.06208000  0.65335000  1.0
  O  O433  1  0.80430000  0.96202000  0.47673000  1.0
  O  O434  1  0.73090000  0.03113000  0.44225000  1.0
  O  O435  1  0.83080000  0.00596000  0.64406000  1.0
  O  O436  1  0.86150000  0.95885000  0.54912000  1.0
  O  O437  1  0.76780000  0.97950000  0.57736000  1.0
  O  O438  1  0.71650000  0.10904000  0.47929000  1.0
  O  O439  1  0.68020000  0.06213000  0.54428000  1.0
  O  O440  1  0.69980000  0.98548000  0.50861000  1.0
  O  O441  1  0.75700000  0.07416000  0.62144000  1.0
  O  O442  1  0.86110000  0.13156000  0.62921000  1.0
  O  O443  1  0.79280000  0.19461000  0.59090000  1.0
  O  O444  1  0.68720000  0.13981000  0.58486000  1.0
  O  O445  1  0.89320000  0.18533000  0.55386000  1.0
  O  O446  1  0.83330000  0.17547000  0.49167000  1.0
  O  O447  1  0.72450000  0.18375000  0.52141000  1.0
  O  O448  1  0.98820000  0.13750000  0.67881000  1.0
  O  O449  1  0.96770000  0.19827000  0.64245000  1.0
  O  O450  1  0.21000000  0.40200000  0.88827000  1.0
  O  O451  1  0.24820000  0.33600000  0.90917000  1.0
  O  O452  1  0.49072000  0.57116000  0.49772000  1.0
  O  O453  1  0.40803000  0.48026000  0.47869000  1.0
  O  O454  1  0.48180000  0.49019000  0.55526000  1.0
  O  O455  1  0.35750000  0.54847000  0.53858000  1.0
  O  O456  1  0.48400000  0.42047000  0.61058000  1.0
  O  O457  1  0.50600000  0.36128000  0.55700000  1.0
  O  O458  1  0.34630000  0.32198000  0.52576000  1.0
  O  O459  1  0.40720000  0.33044000  0.58783000  1.0
  O  O460  1  0.26590000  0.53336000  0.57044000  1.0
  O  O461  1  0.43820000  0.35231000  0.48657000  1.0
  O  O462  1  0.30130000  0.52522000  0.46906000  1.0
  O  O463  1  0.23880000  0.31951000  0.55739000  1.0
  O  O464  1  0.18660000  0.44336000  0.55540000  1.0
  O  O465  1  0.22510000  0.38075000  0.50124000  1.0
  O  O466  1  0.43350000  0.54389000  0.60491000  1.0
  O  O467  1  0.37110000  0.40185000  0.65200000  1.0
  O  O468  1  0.23360000  0.44696000  0.44977000  1.0
  O  O469  1  0.26240000  0.45363000  0.63300000  1.0
  O  O470  1  0.19850000  0.50835000  0.50479000  1.0
  O  O471  1  0.19900000  0.37913000  0.61039000  1.0
  O  O472  1  0.43990000  0.47665000  0.66206000  1.0
  O  O473  1  0.34046000  0.39989000  0.46111000  1.0
  O  O474  1  0.33060000  0.52699000  0.64068000  1.0
  O  O475  1  0.30700000  0.32957000  0.62741000  1.0
  O  O476  1  0.00330000  0.09541000  0.20317000  1.0
  O  O477  1  0.99060000  0.16042000  0.17084000  1.0
  O  O478  1  0.26250000  0.30832000  0.44161000  1.0
  O  O479  1  0.21840000  0.36720000  0.41122000  1.0
  O  O480  1  0.88250000  0.58430000  0.87831000  1.0
  O  O481  1  0.14700000  0.51300000  0.62264000  1.0
  O  O482  1  0.85250000  0.51172000  0.87758000  1.0
  O  O483  1  0.12060000  0.44060000  0.62850000  1.0
  O  O484  1  0.59272000  0.51068000  0.02322000  1.0
  O  O485  1  0.66646000  0.58222000  0.05616000  1.0
  O  O486  1  0.50384000  0.43048000  0.98953000  1.0
  O  O487  1  0.57230000  0.63775000  0.04033000  1.0
  O  O488  1  0.51998000  0.52263000  0.94681000  1.0
  O  O489  1  0.52300000  0.60534000  0.90663000  1.0
  O  O490  1  0.50430000  0.64905000  0.97034000  1.0
  O  O491  1  0.56420000  0.48205000  0.88740000  1.0
  O  O492  1  0.56590000  0.56208000  0.84665000  1.0
  O  O493  1  0.69570000  0.46202000  0.02327000  1.0
  O  O494  1  0.76910000  0.53113000  0.05775000  1.0
  O  O495  1  0.66920000  0.50596000  0.85594000  1.0
  O  O496  1  0.63850000  0.45885000  0.95088000  1.0
  O  O497  1  0.73220000  0.47950000  0.92264000  1.0
  O  O498  1  0.78350000  0.60904000  0.02071000  1.0
  O  O499  1  0.81980000  0.56213000  0.95572000  1.0
  O  O500  1  0.80020000  0.48548000  0.99139000  1.0
  O  O501  1  0.74300000  0.57416000  0.87856000  1.0
  O  O502  1  0.63890000  0.63156000  0.87079000  1.0
  O  O503  1  0.70720000  0.69461000  0.90910000  1.0
  O  O504  1  0.81280000  0.63981000  0.91514000  1.0
  O  O505  1  0.60680000  0.68533000  0.94614000  1.0
  O  O506  1  0.66666667  0.67547000  0.00833000  1.0
  O  O507  1  0.77550000  0.68375000  0.97859000  1.0
  O  O508  1  0.51180000  0.63750000  0.82119000  1.0
  O  O509  1  0.53230000  0.69827000  0.85755000  1.0
  O  O510  1  0.29000000  0.90200000  0.61173000  1.0
  O  O511  1  0.25180000  0.83600000  0.59083000  1.0
  O  O512  1  0.99072000  0.92884000  0.99772000  1.0
  O  O513  1  0.90803000  0.01974000  0.97869000  1.0
  O  O514  1  0.98180000  0.00981000  0.05526000  1.0
  O  O515  1  0.85750000  0.95153000  0.03858000  1.0
  O  O516  1  0.98400000  0.07953000  0.11058000  1.0
  O  O517  1  0.00600000  0.13872000  0.05700000  1.0
  O  O518  1  0.84630000  0.17802000  0.02576000  1.0
  O  O519  1  0.90720000  0.16956000  0.08783000  1.0
  O  O520  1  0.76590000  0.96664000  0.07044000  1.0
  O  O521  1  0.93820000  0.14769000  0.98657000  1.0
  O  O522  1  0.80130000  0.97478000  0.96906000  1.0
  O  O523  1  0.73880000  0.18049000  0.05739000  1.0
  O  O524  1  0.68660000  0.05664000  0.05540000  1.0
  O  O525  1  0.72510000  0.11925000  0.00124000  1.0
  O  O526  1  0.93350000  0.95611000  0.10491000  1.0
  O  O527  1  0.87110000  0.09815000  0.15200000  1.0
  O  O528  1  0.73360000  0.05304000  0.94977000  1.0
  O  O529  1  0.76240000  0.04637000  0.13300000  1.0
  O  O530  1  0.69850000  0.99165000  0.00479000  1.0
  O  O531  1  0.69900000  0.12087000  0.11039000  1.0
  O  O532  1  0.93990000  0.02335000  0.16206000  1.0
  O  O533  1  0.84046000  0.10011000  0.96111000  1.0
  O  O534  1  0.83060000  0.97301000  0.14068000  1.0
  O  O535  1  0.80700000  0.17043000  0.12741000  1.0
  O  O536  1  0.50330000  0.40459000  0.70317000  1.0
  O  O537  1  0.49060000  0.33958000  0.67084000  1.0
  O  O538  1  0.76250000  0.19168000  0.94161000  1.0
  O  O539  1  0.71840000  0.13280000  0.91122000  1.0
  O  O540  1  0.38250000  0.91570000  0.37831000  1.0
  O  O541  1  0.64700000  0.98700000  0.12264000  1.0
  O  O542  1  0.35250000  0.98828000  0.37758000  1.0
  O  O543  1  0.62060000  0.05940000  0.12850000  1.0
  O  O544  1  0.09272000  0.98932000  0.52322000  1.0
  O  O545  1  0.16646000  0.91778000  0.55616000  1.0
  O  O546  1  0.00384000  0.06952000  0.48953000  1.0
  O  O547  1  0.07230000  0.86225000  0.54033000  1.0
  O  O548  1  0.01998000  0.97737000  0.44681000  1.0
  O  O549  1  0.02300000  0.89466000  0.40663000  1.0
  O  O550  1  0.00430000  0.85095000  0.47034000  1.0
  O  O551  1  0.06420000  0.01795000  0.38740000  1.0
  O  O552  1  0.06590000  0.93792000  0.34665000  1.0
  O  O553  1  0.19570000  0.03798000  0.52327000  1.0
  O  O554  1  0.26910000  0.96887000  0.55775000  1.0
  O  O555  1  0.16920000  0.99404000  0.35594000  1.0
  O  O556  1  0.13850000  0.04115000  0.45088000  1.0
  O  O557  1  0.23220000  0.02050000  0.42264000  1.0
  O  O558  1  0.28350000  0.89096000  0.52071000  1.0
  O  O559  1  0.31980000  0.93787000  0.45572000  1.0
  O  O560  1  0.30020000  0.01452000  0.49139000  1.0
  O  O561  1  0.24300000  0.92584000  0.37856000  1.0
  O  O562  1  0.13890000  0.86844000  0.37079000  1.0
  O  O563  1  0.20720000  0.80539000  0.40910000  1.0
  O  O564  1  0.31280000  0.86019000  0.41514000  1.0
  O  O565  1  0.10680000  0.81467000  0.44614000  1.0
  O  O566  1  0.16670000  0.82453000  0.50833000  1.0
  O  O567  1  0.27550000  0.81625000  0.47859000  1.0
  O  O568  1  0.01180000  0.86250000  0.32119000  1.0
  O  O569  1  0.03230000  0.80173000  0.35755000  1.0
  O  O570  1  0.79000000  0.59800000  0.11173000  1.0
  O  O571  1  0.75180000  0.66400000  0.09083000  1.0
  O  O572  1  0.50928000  0.42884000  0.50228000  1.0
  O  O573  1  0.59197000  0.51974000  0.52131000  1.0
  O  O574  1  0.51820000  0.50981000  0.44474000  1.0
  O  O575  1  0.64250000  0.45153000  0.46142000  1.0
  O  O576  1  0.51600000  0.57953000  0.38942000  1.0
  O  O577  1  0.49400000  0.63872000  0.44300000  1.0
  O  O578  1  0.65370000  0.67802000  0.47424000  1.0
  O  O579  1  0.59280000  0.66956000  0.41217000  1.0
  O  O580  1  0.73410000  0.46664000  0.42956000  1.0
  O  O581  1  0.56180000  0.64769000  0.51343000  1.0
  O  O582  1  0.69870000  0.47478000  0.53094000  1.0
  O  O583  1  0.76120000  0.68049000  0.44261000  1.0
  O  O584  1  0.81340000  0.55664000  0.44460000  1.0
  O  O585  1  0.77490000  0.61925000  0.49876000  1.0
  O  O586  1  0.56650000  0.45611000  0.39509000  1.0
  O  O587  1  0.62890000  0.59815000  0.34800000  1.0
  O  O588  1  0.76640000  0.55304000  0.55023000  1.0
  O  O589  1  0.73760000  0.54637000  0.36700000  1.0
  O  O590  1  0.80150000  0.49165000  0.49521000  1.0
  O  O591  1  0.80100000  0.62087000  0.38961000  1.0
  O  O592  1  0.56010000  0.52335000  0.33794000  1.0
  O  O593  1  0.65954000  0.60011000  0.53889000  1.0
  O  O594  1  0.66940000  0.47301000  0.35932000  1.0
  O  O595  1  0.69300000  0.67043000  0.37259000  1.0
  O  O596  1  0.99670000  0.90459000  0.79683000  1.0
  O  O597  1  0.00940000  0.83958000  0.82916000  1.0
  O  O598  1  0.73750000  0.69168000  0.55839000  1.0
  O  O599  1  0.78160000  0.63280000  0.58878000  1.0
  O  O600  1  0.11750000  0.41570000  0.12169000  1.0
  O  O601  1  0.85300000  0.48700000  0.37736000  1.0
  O  O602  1  0.14750000  0.48828000  0.12242000  1.0
  O  O603  1  0.87940000  0.55940000  0.37150000  1.0
  O  O604  1  0.40728000  0.48932000  0.97678000  1.0
  O  O605  1  0.33354000  0.41778000  0.94384000  1.0
  O  O606  1  0.49616000  0.56952000  0.01047000  1.0
  O  O607  1  0.42770000  0.36225000  0.95967000  1.0
  O  O608  1  0.48002000  0.47737000  0.05319000  1.0
  O  O609  1  0.47700000  0.39466000  0.09337000  1.0
  O  O610  1  0.49570000  0.35095000  0.02966000  1.0
  O  O611  1  0.43580000  0.51795000  0.11260000  1.0
  O  O612  1  0.43410000  0.43792000  0.15335000  1.0
  O  O613  1  0.30430000  0.53798000  0.97673000  1.0
  O  O614  1  0.23090000  0.46887000  0.94225000  1.0
  O  O615  1  0.33080000  0.49404000  0.14406000  1.0
  O  O616  1  0.36150000  0.54115000  0.04912000  1.0
  O  O617  1  0.26780000  0.52050000  0.07736000  1.0
  O  O618  1  0.21650000  0.39096000  0.97929000  1.0
  O  O619  1  0.18020000  0.43787000  0.04428000  1.0
  O  O620  1  0.19980000  0.51452000  0.00861000  1.0
  O  O621  1  0.25700000  0.42584000  0.12144000  1.0
  O  O622  1  0.36110000  0.36844000  0.12921000  1.0
  O  O623  1  0.29280000  0.30539000  0.09090000  1.0
  O  O624  1  0.18720000  0.36019000  0.08486000  1.0
  O  O625  1  0.39320000  0.31467000  0.05386000  1.0
  O  O626  1  0.33333333  0.32453000  0.99167000  1.0
  O  O627  1  0.22450000  0.31625000  0.02141000  1.0
  O  O628  1  0.48820000  0.36250000  0.17881000  1.0
  O  O629  1  0.46770000  0.30173000  0.14245000  1.0
  O  O630  1  0.71000000  0.09800000  0.38827000  1.0
  O  O631  1  0.74820000  0.16400000  0.40917000  1.0
