# generated using pymatgen
data_ZnH3C3(N2O)2
_symmetry_space_group_name_H-M   'P 1'
_cell_length_a   12.93050000
_cell_length_b   13.79610000
_cell_length_c   16.82950000
_cell_angle_alpha   90.00000000
_cell_angle_beta   90.00000000
_cell_angle_gamma   90.00000000
_symmetry_Int_Tables_number   1
_chemical_formula_structural   ZnH3C3(N2O)2
_chemical_formula_sum   'Zn16 H48 C48 N64 O32'
_cell_volume   3002.22243254
_cell_formula_units_Z   16
loop_
 _symmetry_equiv_pos_site_id
 _symmetry_equiv_pos_as_xyz
  1  'x, y, z'
loop_
 _atom_site_type_symbol
 _atom_site_label
 _atom_site_symmetry_multiplicity
 _atom_site_fract_x
 _atom_site_fract_y
 _atom_site_fract_z
 _atom_site_occupancy
  Zn  Zn0  1  0.47569000  0.40730000  0.42390000  1.0
  Zn  Zn1  1  0.42707000  0.47793000  0.09649000  1.0
  Zn  Zn2  1  0.52431000  0.09270000  0.92390000  1.0
  Zn  Zn3  1  0.57293000  0.02207000  0.59649000  1.0
  Zn  Zn4  1  0.97569000  0.59270000  0.07610000  1.0
  Zn  Zn5  1  0.92707000  0.52207000  0.40351000  1.0
  Zn  Zn6  1  0.02431000  0.90730000  0.57610000  1.0
  Zn  Zn7  1  0.07293000  0.97793000  0.90351000  1.0
  Zn  Zn8  1  0.52431000  0.59270000  0.57610000  1.0
  Zn  Zn9  1  0.57293000  0.52207000  0.90351000  1.0
  Zn  Zn10  1  0.47569000  0.90730000  0.07610000  1.0
  Zn  Zn11  1  0.42707000  0.97793000  0.40351000  1.0
  Zn  Zn12  1  0.02431000  0.40730000  0.92390000  1.0
  Zn  Zn13  1  0.07293000  0.47793000  0.59649000  1.0
  Zn  Zn14  1  0.97569000  0.09270000  0.42390000  1.0
  Zn  Zn15  1  0.92707000  0.02207000  0.09649000  1.0
  H  H16  1  0.24830000  0.36260000  0.50040000  1.0
  H  H17  1  0.44480000  0.19500000  0.35280000  1.0
  H  H18  1  0.32780000  0.67010000  0.64460000  1.0
  H  H19  1  0.21880000  0.63270000  0.66050000  1.0
  H  H20  1  0.58870000  0.23790000  0.62520000  1.0
  H  H21  1  0.56450000  0.33360000  0.58400000  1.0
  H  H22  1  0.75170000  0.13740000  0.00040000  1.0
  H  H23  1  0.55520000  0.30500000  0.85280000  1.0
  H  H24  1  0.67220000  0.82990000  0.14460000  1.0
  H  H25  1  0.78120000  0.86730000  0.16050000  1.0
  H  H26  1  0.41130000  0.26210000  0.12520000  1.0
  H  H27  1  0.43550000  0.16640000  0.08400000  1.0
  H  H28  1  0.74830000  0.63740000  0.99960000  1.0
  H  H29  1  0.94480000  0.80500000  0.14720000  1.0
  H  H30  1  0.82780000  0.32990000  0.85540000  1.0
  H  H31  1  0.71880000  0.36730000  0.83950000  1.0
  H  H32  1  0.08870000  0.76210000  0.87480000  1.0
  H  H33  1  0.06450000  0.66640000  0.91600000  1.0
  H  H34  1  0.25170000  0.86260000  0.49960000  1.0
  H  H35  1  0.05520000  0.69500000  0.64720000  1.0
  H  H36  1  0.17220000  0.17010000  0.35540000  1.0
  H  H37  1  0.28120000  0.13270000  0.33950000  1.0
  H  H38  1  0.91130000  0.73790000  0.37480000  1.0
  H  H39  1  0.93550000  0.83360000  0.41600000  1.0
  H  H40  1  0.75170000  0.63740000  0.49960000  1.0
  H  H41  1  0.55520000  0.80500000  0.64720000  1.0
  H  H42  1  0.67220000  0.32990000  0.35540000  1.0
  H  H43  1  0.78120000  0.36730000  0.33950000  1.0
  H  H44  1  0.41130000  0.76210000  0.37480000  1.0
  H  H45  1  0.43550000  0.66640000  0.41600000  1.0
  H  H46  1  0.24830000  0.86260000  0.99960000  1.0
  H  H47  1  0.44480000  0.69500000  0.14720000  1.0
  H  H48  1  0.32780000  0.17010000  0.85540000  1.0
  H  H49  1  0.21880000  0.13270000  0.83950000  1.0
  H  H50  1  0.58870000  0.73790000  0.87480000  1.0
  H  H51  1  0.56450000  0.83360000  0.91600000  1.0
  H  H52  1  0.25170000  0.36260000  0.00040000  1.0
  H  H53  1  0.05520000  0.19500000  0.85280000  1.0
  H  H54  1  0.17220000  0.67010000  0.14460000  1.0
  H  H55  1  0.28120000  0.63270000  0.16050000  1.0
  H  H56  1  0.91130000  0.23790000  0.12520000  1.0
  H  H57  1  0.93550000  0.33360000  0.08400000  1.0
  H  H58  1  0.74830000  0.13740000  0.50040000  1.0
  H  H59  1  0.94480000  0.30500000  0.35280000  1.0
  H  H60  1  0.82780000  0.82990000  0.64460000  1.0
  H  H61  1  0.71880000  0.86730000  0.66050000  1.0
  H  H62  1  0.08870000  0.26210000  0.62520000  1.0
  H  H63  1  0.06450000  0.16640000  0.58400000  1.0
  C  C64  1  0.42310000  0.50620000  0.27720000  1.0
  C  C65  1  0.47370000  0.40870000  0.25320000  1.0
  C  C66  1  0.29840000  0.54750000  0.58980000  1.0
  C  C67  1  0.27800000  0.41910000  0.52320000  1.0
  C  C68  1  0.52760000  0.22120000  0.52090000  1.0
  C  C69  1  0.47060000  0.18800000  0.40530000  1.0
  C  C70  1  0.57690000  0.99380000  0.77720000  1.0
  C  C71  1  0.52630000  0.09130000  0.75320000  1.0
  C  C72  1  0.70160000  0.95250000  0.08980000  1.0
  C  C73  1  0.72200000  0.08090000  0.02320000  1.0
  C  C74  1  0.47240000  0.27880000  0.02090000  1.0
  C  C75  1  0.52940000  0.31200000  0.90530000  1.0
  C  C76  1  0.92310000  0.49380000  0.22280000  1.0
  C  C77  1  0.97370000  0.59130000  0.24680000  1.0
  C  C78  1  0.79840000  0.45250000  0.91020000  1.0
  C  C79  1  0.77800000  0.58090000  0.97680000  1.0
  C  C80  1  0.02760000  0.77880000  0.97910000  1.0
  C  C81  1  0.97060000  0.81200000  0.09470000  1.0
  C  C82  1  0.07690000  0.00620000  0.72280000  1.0
  C  C83  1  0.02630000  0.90870000  0.74680000  1.0
  C  C84  1  0.20160000  0.04750000  0.41020000  1.0
  C  C85  1  0.22200000  0.91910000  0.47680000  1.0
  C  C86  1  0.97240000  0.72120000  0.47910000  1.0
  C  C87  1  0.02940000  0.68800000  0.59470000  1.0
  C  C88  1  0.57690000  0.49380000  0.72280000  1.0
  C  C89  1  0.52630000  0.59130000  0.74680000  1.0
  C  C90  1  0.70160000  0.45250000  0.41020000  1.0
  C  C91  1  0.72200000  0.58090000  0.47680000  1.0
  C  C92  1  0.47240000  0.77880000  0.47910000  1.0
  C  C93  1  0.52940000  0.81200000  0.59470000  1.0
  C  C94  1  0.42310000  0.00620000  0.22280000  1.0
  C  C95  1  0.47370000  0.90870000  0.24680000  1.0
  C  C96  1  0.29840000  0.04750000  0.91020000  1.0
  C  C97  1  0.27800000  0.91910000  0.97680000  1.0
  C  C98  1  0.52760000  0.72120000  0.97910000  1.0
  C  C99  1  0.47060000  0.68800000  0.09470000  1.0
  C  C100  1  0.07690000  0.50620000  0.77720000  1.0
  C  C101  1  0.02630000  0.40870000  0.75320000  1.0
  C  C102  1  0.20160000  0.54750000  0.08980000  1.0
  C  C103  1  0.22200000  0.41910000  0.02320000  1.0
  C  C104  1  0.97240000  0.22120000  0.02090000  1.0
  C  C105  1  0.02940000  0.18800000  0.90530000  1.0
  C  C106  1  0.92310000  0.99380000  0.27720000  1.0
  C  C107  1  0.97370000  0.09130000  0.25320000  1.0
  C  C108  1  0.79840000  0.95250000  0.58980000  1.0
  C  C109  1  0.77800000  0.08090000  0.52320000  1.0
  C  C110  1  0.02760000  0.27880000  0.52090000  1.0
  C  C111  1  0.97060000  0.31200000  0.40530000  1.0
  N  N112  1  0.22560000  0.47850000  0.57350000  1.0
  N  N113  1  0.37230000  0.44670000  0.50930000  1.0
  N  N114  1  0.38640000  0.53170000  0.55280000  1.0
  N  N115  1  0.27940000  0.62610000  0.63730000  1.0
  N  N116  1  0.48710000  0.10400000  0.43960000  1.0
  N  N117  1  0.52440000  0.12360000  0.51530000  1.0
  N  N118  1  0.49420000  0.26320000  0.45280000  1.0
  N  N119  1  0.56450000  0.26980000  0.58390000  1.0
  N  N120  1  0.77440000  0.02150000  0.07350000  1.0
  N  N121  1  0.62770000  0.05330000  0.00930000  1.0
  N  N122  1  0.61360000  0.96830000  0.05280000  1.0
  N  N123  1  0.72060000  0.87390000  0.13730000  1.0
  N  N124  1  0.51290000  0.39600000  0.93960000  1.0
  N  N125  1  0.47560000  0.37640000  0.01530000  1.0
  N  N126  1  0.50580000  0.23680000  0.95280000  1.0
  N  N127  1  0.43550000  0.23020000  0.08390000  1.0
  N  N128  1  0.72560000  0.52150000  0.92650000  1.0
  N  N129  1  0.87230000  0.55330000  0.99070000  1.0
  N  N130  1  0.88640000  0.46830000  0.94720000  1.0
  N  N131  1  0.77940000  0.37390000  0.86270000  1.0
  N  N132  1  0.98710000  0.89600000  0.06040000  1.0
  N  N133  1  0.02440000  0.87640000  0.98470000  1.0
  N  N134  1  0.99420000  0.73680000  0.04720000  1.0
  N  N135  1  0.06450000  0.73020000  0.91610000  1.0
  N  N136  1  0.27440000  0.97850000  0.42650000  1.0
  N  N137  1  0.12770000  0.94670000  0.49070000  1.0
  N  N138  1  0.11360000  0.03170000  0.44720000  1.0
  N  N139  1  0.22060000  0.12610000  0.36270000  1.0
  N  N140  1  0.01290000  0.60400000  0.56040000  1.0
  N  N141  1  0.97560000  0.62360000  0.48470000  1.0
  N  N142  1  0.00580000  0.76320000  0.54720000  1.0
  N  N143  1  0.93550000  0.76980000  0.41610000  1.0
  N  N144  1  0.77440000  0.52150000  0.42650000  1.0
  N  N145  1  0.62770000  0.55330000  0.49070000  1.0
  N  N146  1  0.61360000  0.46830000  0.44720000  1.0
  N  N147  1  0.72060000  0.37390000  0.36270000  1.0
  N  N148  1  0.51290000  0.89600000  0.56040000  1.0
  N  N149  1  0.47560000  0.87640000  0.48470000  1.0
  N  N150  1  0.50580000  0.73680000  0.54720000  1.0
  N  N151  1  0.43550000  0.73020000  0.41610000  1.0
  N  N152  1  0.22560000  0.97850000  0.92650000  1.0
  N  N153  1  0.37230000  0.94670000  0.99070000  1.0
  N  N154  1  0.38640000  0.03170000  0.94720000  1.0
  N  N155  1  0.27940000  0.12610000  0.86270000  1.0
  N  N156  1  0.48710000  0.60400000  0.06040000  1.0
  N  N157  1  0.52440000  0.62360000  0.98470000  1.0
  N  N158  1  0.49420000  0.76320000  0.04720000  1.0
  N  N159  1  0.56450000  0.76980000  0.91610000  1.0
  N  N160  1  0.27440000  0.47850000  0.07350000  1.0
  N  N161  1  0.12770000  0.44670000  0.00930000  1.0
  N  N162  1  0.11360000  0.53170000  0.05280000  1.0
  N  N163  1  0.22060000  0.62610000  0.13730000  1.0
  N  N164  1  0.01290000  0.10400000  0.93960000  1.0
  N  N165  1  0.97560000  0.12360000  0.01530000  1.0
  N  N166  1  0.00580000  0.26320000  0.95280000  1.0
  N  N167  1  0.93550000  0.26980000  0.08390000  1.0
  N  N168  1  0.72560000  0.02150000  0.57350000  1.0
  N  N169  1  0.87230000  0.05330000  0.50930000  1.0
  N  N170  1  0.88640000  0.96830000  0.55280000  1.0
  N  N171  1  0.77940000  0.87390000  0.63730000  1.0
  N  N172  1  0.98710000  0.39600000  0.43960000  1.0
  N  N173  1  0.02440000  0.37640000  0.51530000  1.0
  N  N174  1  0.99420000  0.23680000  0.45280000  1.0
  N  N175  1  0.06450000  0.23020000  0.58390000  1.0
  O  O176  1  0.48440000  0.39110000  0.18150000  1.0
  O  O177  1  0.39500000  0.55860000  0.22080000  1.0
  O  O178  1  0.50190000  0.35430000  0.30900000  1.0
  O  O179  1  0.41550000  0.52230000  0.35020000  1.0
  O  O180  1  0.51560000  0.10890000  0.68150000  1.0
  O  O181  1  0.60500000  0.94140000  0.72080000  1.0
  O  O182  1  0.49810000  0.14570000  0.80900000  1.0
  O  O183  1  0.58450000  0.97770000  0.85020000  1.0
  O  O184  1  0.98440000  0.60890000  0.31850000  1.0
  O  O185  1  0.89500000  0.44140000  0.27920000  1.0
  O  O186  1  0.00190000  0.64570000  0.19100000  1.0
  O  O187  1  0.91550000  0.47770000  0.14980000  1.0
  O  O188  1  0.01560000  0.89110000  0.81850000  1.0
  O  O189  1  0.10500000  0.05860000  0.77920000  1.0
  O  O190  1  0.99810000  0.85430000  0.69100000  1.0
  O  O191  1  0.08450000  0.02230000  0.64980000  1.0
  O  O192  1  0.51560000  0.60890000  0.81850000  1.0
  O  O193  1  0.60500000  0.44140000  0.77920000  1.0
  O  O194  1  0.49810000  0.64570000  0.69100000  1.0
  O  O195  1  0.58450000  0.47770000  0.64980000  1.0
  O  O196  1  0.48440000  0.89110000  0.31850000  1.0
  O  O197  1  0.39500000  0.05860000  0.27920000  1.0
  O  O198  1  0.50190000  0.85430000  0.19100000  1.0
  O  O199  1  0.41550000  0.02230000  0.14980000  1.0
  O  O200  1  0.01560000  0.39110000  0.68150000  1.0
  O  O201  1  0.10500000  0.55860000  0.72080000  1.0
  O  O202  1  0.99810000  0.35430000  0.80900000  1.0
  O  O203  1  0.08450000  0.52230000  0.85020000  1.0
  O  O204  1  0.98440000  0.10890000  0.18150000  1.0
  O  O205  1  0.89500000  0.94140000  0.22080000  1.0
  O  O206  1  0.00190000  0.14570000  0.30900000  1.0
  O  O207  1  0.91550000  0.97770000  0.35020000  1.0
