# generated using pymatgen
data_Na3Zn4CuH4(CO)20
_symmetry_space_group_name_H-M   'P 1'
_cell_length_a   11.26220000
_cell_length_b   13.23480000
_cell_length_c   13.23480000
_cell_angle_alpha   101.48800000
_cell_angle_beta   106.74300000
_cell_angle_gamma   73.25660000
_symmetry_Int_Tables_number   1
_chemical_formula_structural   Na3Zn4CuH4(CO)20
_chemical_formula_sum   'Na6 Zn8 Cu2 H8 C40 O40'
_cell_volume   1794.39495617
_cell_formula_units_Z   2
loop_
 _symmetry_equiv_pos_site_id
 _symmetry_equiv_pos_as_xyz
  1  'x, y, z'
loop_
 _atom_site_type_symbol
 _atom_site_label
 _atom_site_symmetry_multiplicity
 _atom_site_fract_x
 _atom_site_fract_y
 _atom_site_fract_z
 _atom_site_occupancy
  Na  Na0  1  0.71190000  0.68610000  0.35090000  1.0
  Na  Na1  1  0.78810000  0.35090000  0.68610000  1.0
  Na  Na2  1  0.28810000  0.31390000  0.64910000  1.0
  Na  Na3  1  0.21190000  0.64910000  0.31390000  1.0
  Na  Na4  1  0.75000000  0.32050000  0.32050000  1.0
  Na  Na5  1  0.25000000  0.67950000  0.67950000  1.0
  Zn  Zn6  1  0.46046000  0.86093000  0.16779000  1.0
  Zn  Zn7  1  0.03954000  0.16779000  0.86093000  1.0
  Zn  Zn8  1  0.53954000  0.13907000  0.83221000  1.0
  Zn  Zn9  1  0.96046000  0.83221000  0.13907000  1.0
  Zn  Zn10  1  0.25000000  0.88753000  0.88753000  1.0
  Zn  Zn11  1  0.25000000  0.07555000  0.07555000  1.0
  Zn  Zn12  1  0.75000000  0.11247000  0.11247000  1.0
  Zn  Zn13  1  0.75000000  0.92445000  0.92445000  1.0
  Cu  Cu14  1  0.50000000  0.00000000  0.00000000  1.0
  Cu  Cu15  1  0.00000000  0.00000000  0.00000000  1.0
  H  H16  1  0.12610000  0.48280000  0.00940000  1.0
  H  H17  1  0.55980000  0.45260000  0.13720000  1.0
  H  H18  1  0.37390000  0.00940000  0.48280000  1.0
  H  H19  1  0.94020000  0.13720000  0.45260000  1.0
  H  H20  1  0.87390000  0.51720000  0.99060000  1.0
  H  H21  1  0.44020000  0.54740000  0.86280000  1.0
  H  H22  1  0.62610000  0.99060000  0.51720000  1.0
  H  H23  1  0.05980000  0.86280000  0.54740000  1.0
  C  C24  1  0.38830000  0.56000000  0.10960000  1.0
  C  C25  1  0.25780000  0.56910000  0.06870000  1.0
  C  C26  1  0.21350000  0.47690000  0.03550000  1.0
  C  C27  1  0.29550000  0.37740000  0.04040000  1.0
  C  C28  1  0.42800000  0.36840000  0.07620000  1.0
  C  C29  1  0.47230000  0.45870000  0.11150000  1.0
  C  C30  1  0.44400000  0.65500000  0.14960000  1.0
  C  C31  1  0.15870000  0.67260000  0.06000000  1.0
  C  C32  1  0.23980000  0.28190000  0.01570000  1.0
  C  C33  1  0.51990000  0.26120000  0.06900000  1.0
  C  C34  1  0.11170000  0.10960000  0.56000000  1.0
  C  C35  1  0.24220000  0.06870000  0.56910000  1.0
  C  C36  1  0.28650000  0.03550000  0.47690000  1.0
  C  C37  1  0.20450000  0.04040000  0.37740000  1.0
  C  C38  1  0.07200000  0.07620000  0.36840000  1.0
  C  C39  1  0.02770000  0.11150000  0.45870000  1.0
  C  C40  1  0.05600000  0.14960000  0.65500000  1.0
  C  C41  1  0.34130000  0.06000000  0.67260000  1.0
  C  C42  1  0.26020000  0.01570000  0.28190000  1.0
  C  C43  1  0.98010000  0.06900000  0.26120000  1.0
  C  C44  1  0.61170000  0.44000000  0.89040000  1.0
  C  C45  1  0.74220000  0.43090000  0.93130000  1.0
  C  C46  1  0.78650000  0.52310000  0.96450000  1.0
  C  C47  1  0.70450000  0.62260000  0.95960000  1.0
  C  C48  1  0.57200000  0.63160000  0.92380000  1.0
  C  C49  1  0.52770000  0.54130000  0.88850000  1.0
  C  C50  1  0.55600000  0.34500000  0.85040000  1.0
  C  C51  1  0.84130000  0.32740000  0.94000000  1.0
  C  C52  1  0.76020000  0.71810000  0.98430000  1.0
  C  C53  1  0.48010000  0.73880000  0.93100000  1.0
  C  C54  1  0.88830000  0.89040000  0.44000000  1.0
  C  C55  1  0.75780000  0.93130000  0.43090000  1.0
  C  C56  1  0.71350000  0.96450000  0.52310000  1.0
  C  C57  1  0.79550000  0.95960000  0.62260000  1.0
  C  C58  1  0.92800000  0.92380000  0.63160000  1.0
  C  C59  1  0.97230000  0.88850000  0.54130000  1.0
  C  C60  1  0.94400000  0.85040000  0.34500000  1.0
  C  C61  1  0.65870000  0.94000000  0.32740000  1.0
  C  C62  1  0.73980000  0.98430000  0.71810000  1.0
  C  C63  1  0.01990000  0.93100000  0.73880000  1.0
  O  O64  1  0.55160000  0.64410000  0.20990000  1.0
  O  O65  1  0.37670000  0.74330000  0.11850000  1.0
  O  O66  1  0.12520000  0.72150000  0.14450000  1.0
  O  O67  1  0.10970000  0.69930000  0.96950000  1.0
  O  O68  1  0.16080000  0.27070000  0.92850000  1.0
  O  O69  1  0.27510000  0.22427000  0.08873000  1.0
  O  O70  1  0.48890000  0.19060000  0.99560000  1.0
  O  O71  1  0.62620000  0.24860000  0.13760000  1.0
  O  O72  1  0.43780000  0.00267000  0.12193000  1.0
  O  O73  1  0.31640000  0.01573000  0.92187000  1.0
  O  O74  1  0.94840000  0.20990000  0.64410000  1.0
  O  O75  1  0.12330000  0.11850000  0.74330000  1.0
  O  O76  1  0.37480000  0.14450000  0.72150000  1.0
  O  O77  1  0.39030000  0.96950000  0.69930000  1.0
  O  O78  1  0.33920000  0.92850000  0.27070000  1.0
  O  O79  1  0.22490000  0.08873000  0.22427000  1.0
  O  O80  1  0.01110000  0.99560000  0.19060000  1.0
  O  O81  1  0.87380000  0.13760000  0.24860000  1.0
  O  O82  1  0.06220000  0.12193000  0.00267000  1.0
  O  O83  1  0.18360000  0.92187000  0.01573000  1.0
  O  O84  1  0.44840000  0.35590000  0.79010000  1.0
  O  O85  1  0.62330000  0.25670000  0.88150000  1.0
  O  O86  1  0.87480000  0.27850000  0.85550000  1.0
  O  O87  1  0.89030000  0.30070000  0.03050000  1.0
  O  O88  1  0.83920000  0.72930000  0.07150000  1.0
  O  O89  1  0.72490000  0.77573000  0.91127000  1.0
  O  O90  1  0.51110000  0.80940000  0.00440000  1.0
  O  O91  1  0.37380000  0.75140000  0.86240000  1.0
  O  O92  1  0.56220000  0.99733000  0.87807000  1.0
  O  O93  1  0.68360000  0.98427000  0.07813000  1.0
  O  O94  1  0.05160000  0.79010000  0.35590000  1.0
  O  O95  1  0.87670000  0.88150000  0.25670000  1.0
  O  O96  1  0.62520000  0.85550000  0.27850000  1.0
  O  O97  1  0.60970000  0.03050000  0.30070000  1.0
  O  O98  1  0.66080000  0.07150000  0.72930000  1.0
  O  O99  1  0.77510000  0.91127000  0.77573000  1.0
  O  O100  1  0.98890000  0.00440000  0.80940000  1.0
  O  O101  1  0.12620000  0.86240000  0.75140000  1.0
  O  O102  1  0.93780000  0.87807000  0.99733000  1.0
  O  O103  1  0.81640000  0.07813000  0.98427000  1.0
