# generated using pymatgen
data_Ce2H3C7O13
_symmetry_space_group_name_H-M   'P 1'
_cell_length_a   10.38700000
_cell_length_b   13.00900000
_cell_length_c   22.10200000
_cell_angle_alpha   90.00000000
_cell_angle_beta   90.00000000
_cell_angle_gamma   90.00000000
_symmetry_Int_Tables_number   1
_chemical_formula_structural   Ce2H3C7O13
_chemical_formula_sum   'Ce16 H24 C56 O104'
_cell_volume   2986.52132327
_cell_formula_units_Z   8
loop_
 _symmetry_equiv_pos_site_id
 _symmetry_equiv_pos_as_xyz
  1  'x, y, z'
loop_
 _atom_site_type_symbol
 _atom_site_label
 _atom_site_symmetry_multiplicity
 _atom_site_fract_x
 _atom_site_fract_y
 _atom_site_fract_z
 _atom_site_occupancy
  Ce  Ce0  1  0.69691000  0.45159000  0.52079000  1.0
  Ce  Ce1  1  0.28583000  0.53889000  0.74509000  1.0
  Ce  Ce2  1  0.30309000  0.04841000  0.02079000  1.0
  Ce  Ce3  1  0.71417000  0.96111000  0.24509000  1.0
  Ce  Ce4  1  0.19691000  0.54841000  0.97921000  1.0
  Ce  Ce5  1  0.78583000  0.46111000  0.75491000  1.0
  Ce  Ce6  1  0.80309000  0.95159000  0.47921000  1.0
  Ce  Ce7  1  0.21417000  0.03889000  0.25491000  1.0
  Ce  Ce8  1  0.30309000  0.54841000  0.47921000  1.0
  Ce  Ce9  1  0.71417000  0.46111000  0.25491000  1.0
  Ce  Ce10  1  0.69691000  0.95159000  0.97921000  1.0
  Ce  Ce11  1  0.28583000  0.03889000  0.75491000  1.0
  Ce  Ce12  1  0.80309000  0.45159000  0.02079000  1.0
  Ce  Ce13  1  0.21417000  0.53889000  0.24509000  1.0
  Ce  Ce14  1  0.19691000  0.04841000  0.52079000  1.0
  Ce  Ce15  1  0.78583000  0.96111000  0.74509000  1.0
  H  H16  1  0.47390000  0.32650000  0.46700000  1.0
  H  H17  1  0.57500000  0.17510000  0.46250000  1.0
  H  H18  1  0.59880000  0.22090000  0.40380000  1.0
  H  H19  1  0.52610000  0.17350000  0.96700000  1.0
  H  H20  1  0.42500000  0.32490000  0.96250000  1.0
  H  H21  1  0.40120000  0.27910000  0.90380000  1.0
  H  H22  1  0.97390000  0.67350000  0.03300000  1.0
  H  H23  1  0.07500000  0.82490000  0.03750000  1.0
  H  H24  1  0.09880000  0.77910000  0.09620000  1.0
  H  H25  1  0.02610000  0.82650000  0.53300000  1.0
  H  H26  1  0.92500000  0.67510000  0.53750000  1.0
  H  H27  1  0.90120000  0.72090000  0.59620000  1.0
  H  H28  1  0.52610000  0.67350000  0.53300000  1.0
  H  H29  1  0.42500000  0.82490000  0.53750000  1.0
  H  H30  1  0.40120000  0.77910000  0.59620000  1.0
  H  H31  1  0.47390000  0.82650000  0.03300000  1.0
  H  H32  1  0.57500000  0.67510000  0.03750000  1.0
  H  H33  1  0.59880000  0.72090000  0.09620000  1.0
  H  H34  1  0.02610000  0.32650000  0.96700000  1.0
  H  H35  1  0.92500000  0.17510000  0.96250000  1.0
  H  H36  1  0.90120000  0.22090000  0.90380000  1.0
  H  H37  1  0.97390000  0.17350000  0.46700000  1.0
  H  H38  1  0.07500000  0.32490000  0.46250000  1.0
  H  H39  1  0.09880000  0.27910000  0.40380000  1.0
  C  C40  1  0.01480000  0.47820000  0.53181000  1.0
  C  C41  1  0.44640000  0.48890000  0.61366000  1.0
  C  C42  1  0.56120000  0.48820000  0.65763000  1.0
  C  C43  1  0.33540000  0.28810000  0.77826000  1.0
  C  C44  1  0.22750000  0.28600000  0.72970000  1.0
  C  C45  1  0.61830000  0.22830000  0.44320000  1.0
  C  C46  1  0.76000000  0.22610000  0.45722000  1.0
  C  C47  1  0.98520000  0.02180000  0.03181000  1.0
  C  C48  1  0.55360000  0.01110000  0.11366000  1.0
  C  C49  1  0.43880000  0.01180000  0.15763000  1.0
  C  C50  1  0.66460000  0.21190000  0.27826000  1.0
  C  C51  1  0.77250000  0.21400000  0.22970000  1.0
  C  C52  1  0.38170000  0.27170000  0.94320000  1.0
  C  C53  1  0.24000000  0.27390000  0.95722000  1.0
  C  C54  1  0.51480000  0.52180000  0.96819000  1.0
  C  C55  1  0.94640000  0.51110000  0.88634000  1.0
  C  C56  1  0.06120000  0.51180000  0.84237000  1.0
  C  C57  1  0.83540000  0.71190000  0.72174000  1.0
  C  C58  1  0.72750000  0.71400000  0.77030000  1.0
  C  C59  1  0.11830000  0.77170000  0.05680000  1.0
  C  C60  1  0.26000000  0.77390000  0.04278000  1.0
  C  C61  1  0.48520000  0.97820000  0.46819000  1.0
  C  C62  1  0.05360000  0.98890000  0.38634000  1.0
  C  C63  1  0.93880000  0.98820000  0.34237000  1.0
  C  C64  1  0.16460000  0.78810000  0.22174000  1.0
  C  C65  1  0.27250000  0.78600000  0.27030000  1.0
  C  C66  1  0.88170000  0.72830000  0.55680000  1.0
  C  C67  1  0.74000000  0.72610000  0.54278000  1.0
  C  C68  1  0.98520000  0.52180000  0.46819000  1.0
  C  C69  1  0.55360000  0.51110000  0.38634000  1.0
  C  C70  1  0.43880000  0.51180000  0.34237000  1.0
  C  C71  1  0.66460000  0.71190000  0.22174000  1.0
  C  C72  1  0.77250000  0.71400000  0.27030000  1.0
  C  C73  1  0.38170000  0.77170000  0.55680000  1.0
  C  C74  1  0.24000000  0.77390000  0.54278000  1.0
  C  C75  1  0.01480000  0.97820000  0.96819000  1.0
  C  C76  1  0.44640000  0.98890000  0.88634000  1.0
  C  C77  1  0.56120000  0.98820000  0.84237000  1.0
  C  C78  1  0.33540000  0.78810000  0.72174000  1.0
  C  C79  1  0.22750000  0.78600000  0.77030000  1.0
  C  C80  1  0.61830000  0.72830000  0.05680000  1.0
  C  C81  1  0.76000000  0.72610000  0.04278000  1.0
  C  C82  1  0.48520000  0.47820000  0.03181000  1.0
  C  C83  1  0.05360000  0.48890000  0.11366000  1.0
  C  C84  1  0.93880000  0.48820000  0.15763000  1.0
  C  C85  1  0.16460000  0.28810000  0.27826000  1.0
  C  C86  1  0.27250000  0.28600000  0.22970000  1.0
  C  C87  1  0.88170000  0.22830000  0.94320000  1.0
  C  C88  1  0.74000000  0.22610000  0.95722000  1.0
  C  C89  1  0.51480000  0.02180000  0.53181000  1.0
  C  C90  1  0.94640000  0.01110000  0.61366000  1.0
  C  C91  1  0.06120000  0.01180000  0.65763000  1.0
  C  C92  1  0.83540000  0.21190000  0.77826000  1.0
  C  C93  1  0.72750000  0.21400000  0.72970000  1.0
  C  C94  1  0.11830000  0.27170000  0.44320000  1.0
  C  C95  1  0.26000000  0.27390000  0.45722000  1.0
  O  O96  1  0.91790000  0.45670000  0.56338000  1.0
  O  O97  1  0.87080000  0.53260000  0.45387000  1.0
  O  O98  1  0.46960000  0.47090000  0.55786000  1.0
  O  O99  1  0.33950000  0.50880000  0.63422000  1.0
  O  O100  1  0.67270000  0.47720000  0.63619000  1.0
  O  O101  1  0.53580000  0.49790000  0.71293000  1.0
  O  O102  1  0.36940000  0.37600000  0.79544000  1.0
  O  O103  1  0.37830000  0.70420000  0.70397000  1.0
  O  O104  1  0.19170000  0.37150000  0.70905000  1.0
  O  O105  1  0.18600000  0.70020000  0.78731000  1.0
  O  O106  1  0.56900000  0.32330000  0.46279000  1.0
  O  O107  1  0.81570000  0.30960000  0.46830000  1.0
  O  O108  1  0.68270000  0.64020000  0.54400000  1.0
  O  O109  1  0.08210000  0.04330000  0.06338000  1.0
  O  O110  1  0.12920000  0.96740000  0.95387000  1.0
  O  O111  1  0.53040000  0.02910000  0.05786000  1.0
  O  O112  1  0.66050000  0.99120000  0.13422000  1.0
  O  O113  1  0.32730000  0.02280000  0.13619000  1.0
  O  O114  1  0.46420000  0.00210000  0.21293000  1.0
  O  O115  1  0.63060000  0.12400000  0.29544000  1.0
  O  O116  1  0.62170000  0.79580000  0.20397000  1.0
  O  O117  1  0.80830000  0.12850000  0.20905000  1.0
  O  O118  1  0.81400000  0.79980000  0.28731000  1.0
  O  O119  1  0.43100000  0.17670000  0.96279000  1.0
  O  O120  1  0.18430000  0.19040000  0.96830000  1.0
  O  O121  1  0.31730000  0.85980000  0.04400000  1.0
  O  O122  1  0.41790000  0.54330000  0.93662000  1.0
  O  O123  1  0.37080000  0.46740000  0.04613000  1.0
  O  O124  1  0.96960000  0.52910000  0.94214000  1.0
  O  O125  1  0.83950000  0.49120000  0.86578000  1.0
  O  O126  1  0.17270000  0.52280000  0.86381000  1.0
  O  O127  1  0.03580000  0.50210000  0.78707000  1.0
  O  O128  1  0.86940000  0.62400000  0.70456000  1.0
  O  O129  1  0.87830000  0.29580000  0.79603000  1.0
  O  O130  1  0.69170000  0.62850000  0.79095000  1.0
  O  O131  1  0.68600000  0.29980000  0.71269000  1.0
  O  O132  1  0.06900000  0.67670000  0.03721000  1.0
  O  O133  1  0.31570000  0.69040000  0.03170000  1.0
  O  O134  1  0.18270000  0.35980000  0.95600000  1.0
  O  O135  1  0.58210000  0.95670000  0.43662000  1.0
  O  O136  1  0.62920000  0.03260000  0.54613000  1.0
  O  O137  1  0.03040000  0.97090000  0.44214000  1.0
  O  O138  1  0.16050000  0.00880000  0.36578000  1.0
  O  O139  1  0.82730000  0.97720000  0.36381000  1.0
  O  O140  1  0.96420000  0.99790000  0.28707000  1.0
  O  O141  1  0.13060000  0.87600000  0.20456000  1.0
  O  O142  1  0.12170000  0.20420000  0.29603000  1.0
  O  O143  1  0.30830000  0.87150000  0.29095000  1.0
  O  O144  1  0.31400000  0.20020000  0.21269000  1.0
  O  O145  1  0.93100000  0.82330000  0.53721000  1.0
  O  O146  1  0.68430000  0.80960000  0.53170000  1.0
  O  O147  1  0.81730000  0.14020000  0.45600000  1.0
  O  O148  1  0.08210000  0.54330000  0.43662000  1.0
  O  O149  1  0.12920000  0.46740000  0.54613000  1.0
  O  O150  1  0.53040000  0.52910000  0.44214000  1.0
  O  O151  1  0.66050000  0.49120000  0.36578000  1.0
  O  O152  1  0.32730000  0.52280000  0.36381000  1.0
  O  O153  1  0.46420000  0.50210000  0.28707000  1.0
  O  O154  1  0.63060000  0.62400000  0.20456000  1.0
  O  O155  1  0.62170000  0.29580000  0.29603000  1.0
  O  O156  1  0.80830000  0.62850000  0.29095000  1.0
  O  O157  1  0.81400000  0.29980000  0.21269000  1.0
  O  O158  1  0.43100000  0.67670000  0.53721000  1.0
  O  O159  1  0.18430000  0.69040000  0.53170000  1.0
  O  O160  1  0.31730000  0.35980000  0.45600000  1.0
  O  O161  1  0.91790000  0.95670000  0.93662000  1.0
  O  O162  1  0.87080000  0.03260000  0.04613000  1.0
  O  O163  1  0.46960000  0.97090000  0.94214000  1.0
  O  O164  1  0.33950000  0.00880000  0.86578000  1.0
  O  O165  1  0.67270000  0.97720000  0.86381000  1.0
  O  O166  1  0.53580000  0.99790000  0.78707000  1.0
  O  O167  1  0.36940000  0.87600000  0.70456000  1.0
  O  O168  1  0.37830000  0.20420000  0.79603000  1.0
  O  O169  1  0.19170000  0.87150000  0.79095000  1.0
  O  O170  1  0.18600000  0.20020000  0.71269000  1.0
  O  O171  1  0.56900000  0.82330000  0.03721000  1.0
  O  O172  1  0.81570000  0.80960000  0.03170000  1.0
  O  O173  1  0.68270000  0.14020000  0.95600000  1.0
  O  O174  1  0.58210000  0.45670000  0.06338000  1.0
  O  O175  1  0.62920000  0.53260000  0.95387000  1.0
  O  O176  1  0.03040000  0.47090000  0.05786000  1.0
  O  O177  1  0.16050000  0.50880000  0.13422000  1.0
  O  O178  1  0.82730000  0.47720000  0.13619000  1.0
  O  O179  1  0.96420000  0.49790000  0.21293000  1.0
  O  O180  1  0.13060000  0.37600000  0.29544000  1.0
  O  O181  1  0.12170000  0.70420000  0.20397000  1.0
  O  O182  1  0.30830000  0.37150000  0.20905000  1.0
  O  O183  1  0.31400000  0.70020000  0.28731000  1.0
  O  O184  1  0.93100000  0.32330000  0.96279000  1.0
  O  O185  1  0.68430000  0.30960000  0.96830000  1.0
  O  O186  1  0.81730000  0.64020000  0.04400000  1.0
  O  O187  1  0.41790000  0.04330000  0.56338000  1.0
  O  O188  1  0.37080000  0.96740000  0.45387000  1.0
  O  O189  1  0.96960000  0.02910000  0.55786000  1.0
  O  O190  1  0.83950000  0.99120000  0.63422000  1.0
  O  O191  1  0.17270000  0.02280000  0.63619000  1.0
  O  O192  1  0.03580000  0.00210000  0.71293000  1.0
  O  O193  1  0.86940000  0.12400000  0.79544000  1.0
  O  O194  1  0.87830000  0.79580000  0.70397000  1.0
  O  O195  1  0.69170000  0.12850000  0.70905000  1.0
  O  O196  1  0.68600000  0.79980000  0.78731000  1.0
  O  O197  1  0.06900000  0.17670000  0.46279000  1.0
  O  O198  1  0.31570000  0.19040000  0.46830000  1.0
  O  O199  1  0.18270000  0.85980000  0.54400000  1.0
