# generated using pymatgen
data_AgH16(C7N)4
_symmetry_space_group_name_H-M   'P 1'
_cell_length_a   24.27200000
_cell_length_b   24.27200000
_cell_length_c   4.93700000
_cell_angle_alpha   90.00000000
_cell_angle_beta   90.00000000
_cell_angle_gamma   90.00000000
_symmetry_Int_Tables_number   1
_chemical_formula_structural   AgH16(C7N)4
_chemical_formula_sum   'Ag4 H64 C112 N16'
_cell_volume   2908.53473101
_cell_formula_units_Z   4
loop_
 _symmetry_equiv_pos_site_id
 _symmetry_equiv_pos_as_xyz
  1  'x, y, z'
loop_
 _atom_site_type_symbol
 _atom_site_label
 _atom_site_symmetry_multiplicity
 _atom_site_fract_x
 _atom_site_fract_y
 _atom_site_fract_z
 _atom_site_occupancy
  Ag  Ag0  1  0.00000000  0.50000000  0.25000000  1.0
  Ag  Ag1  1  0.50000000  0.00000000  0.75000000  1.0
  Ag  Ag2  1  0.50000000  0.50000000  0.50000000  1.0
  Ag  Ag3  1  0.00000000  0.00000000  0.00000000  1.0
  H  H4  1  0.85020000  0.54650000  0.91500000  1.0
  H  H5  1  0.77750000  0.54670000  0.22800000  1.0
  H  H6  1  0.78310000  0.38080000  0.22800000  1.0
  H  H7  1  0.84920000  0.38250000  0.92200000  1.0
  H  H8  1  0.35020000  0.04650000  0.41500000  1.0
  H  H9  1  0.27750000  0.04670000  0.72800000  1.0
  H  H10  1  0.28310000  0.88080000  0.72800000  1.0
  H  H11  1  0.34920000  0.88250000  0.42200000  1.0
  H  H12  1  0.14980000  0.45350000  0.91500000  1.0
  H  H13  1  0.22250000  0.45330000  0.22800000  1.0
  H  H14  1  0.21690000  0.61920000  0.22800000  1.0
  H  H15  1  0.15080000  0.61750000  0.92200000  1.0
  H  H16  1  0.64980000  0.95350000  0.41500000  1.0
  H  H17  1  0.72250000  0.95330000  0.72800000  1.0
  H  H18  1  0.71690000  0.11920000  0.72800000  1.0
  H  H19  1  0.65080000  0.11750000  0.42200000  1.0
  H  H20  1  0.54650000  0.14980000  0.08500000  1.0
  H  H21  1  0.54670000  0.22250000  0.77200000  1.0
  H  H22  1  0.38080000  0.21690000  0.77200000  1.0
  H  H23  1  0.38250000  0.15080000  0.07800000  1.0
  H  H24  1  0.04650000  0.64980000  0.58500000  1.0
  H  H25  1  0.04670000  0.72250000  0.27200000  1.0
  H  H26  1  0.88080000  0.71690000  0.27200000  1.0
  H  H27  1  0.88250000  0.65080000  0.57800000  1.0
  H  H28  1  0.45350000  0.85020000  0.08500000  1.0
  H  H29  1  0.45330000  0.77750000  0.77200000  1.0
  H  H30  1  0.61920000  0.78310000  0.77200000  1.0
  H  H31  1  0.61750000  0.84920000  0.07800000  1.0
  H  H32  1  0.95350000  0.35020000  0.58500000  1.0
  H  H33  1  0.95330000  0.27750000  0.27200000  1.0
  H  H34  1  0.11920000  0.28310000  0.27200000  1.0
  H  H35  1  0.11750000  0.34920000  0.57800000  1.0
  H  H36  1  0.64980000  0.54650000  0.83500000  1.0
  H  H37  1  0.72250000  0.54670000  0.52200000  1.0
  H  H38  1  0.71690000  0.38080000  0.52200000  1.0
  H  H39  1  0.65080000  0.38250000  0.82800000  1.0
  H  H40  1  0.14980000  0.04650000  0.33500000  1.0
  H  H41  1  0.22250000  0.04670000  0.02200000  1.0
  H  H42  1  0.21690000  0.88080000  0.02200000  1.0
  H  H43  1  0.15080000  0.88250000  0.32800000  1.0
  H  H44  1  0.35020000  0.45350000  0.83500000  1.0
  H  H45  1  0.27750000  0.45330000  0.52200000  1.0
  H  H46  1  0.28310000  0.61920000  0.52200000  1.0
  H  H47  1  0.34920000  0.61750000  0.82800000  1.0
  H  H48  1  0.85020000  0.95350000  0.33500000  1.0
  H  H49  1  0.77750000  0.95330000  0.02200000  1.0
  H  H50  1  0.78310000  0.11920000  0.02200000  1.0
  H  H51  1  0.84920000  0.11750000  0.32800000  1.0
  H  H52  1  0.95350000  0.14980000  0.66500000  1.0
  H  H53  1  0.95330000  0.22250000  0.97800000  1.0
  H  H54  1  0.11920000  0.21690000  0.97800000  1.0
  H  H55  1  0.11750000  0.15080000  0.67200000  1.0
  H  H56  1  0.45350000  0.64980000  0.16500000  1.0
  H  H57  1  0.45330000  0.72250000  0.47800000  1.0
  H  H58  1  0.61920000  0.71690000  0.47800000  1.0
  H  H59  1  0.61750000  0.65080000  0.17200000  1.0
  H  H60  1  0.04650000  0.85020000  0.66500000  1.0
  H  H61  1  0.04670000  0.77750000  0.97800000  1.0
  H  H62  1  0.88080000  0.78310000  0.97800000  1.0
  H  H63  1  0.88250000  0.84920000  0.67200000  1.0
  H  H64  1  0.54650000  0.35020000  0.16500000  1.0
  H  H65  1  0.54670000  0.27750000  0.47800000  1.0
  H  H66  1  0.38080000  0.28310000  0.47800000  1.0
  H  H67  1  0.38250000  0.34920000  0.17200000  1.0
  C  C68  1  0.85530000  0.46530000  0.88190000  1.0
  C  C69  1  0.83560000  0.51330000  0.97600000  1.0
  C  C70  1  0.79230000  0.51340000  0.17000000  1.0
  C  C71  1  0.77180000  0.46450000  0.27320000  1.0
  C  C72  1  0.79590000  0.41470000  0.16600000  1.0
  C  C73  1  0.83470000  0.41570000  0.98500000  1.0
  C  C74  1  0.89660000  0.46820000  0.67670000  1.0
  C  C75  1  0.35530000  0.96530000  0.38190000  1.0
  C  C76  1  0.33560000  0.01330000  0.47600000  1.0
  C  C77  1  0.29230000  0.01340000  0.67000000  1.0
  C  C78  1  0.27180000  0.96450000  0.77320000  1.0
  C  C79  1  0.29590000  0.91470000  0.66600000  1.0
  C  C80  1  0.33470000  0.91570000  0.48500000  1.0
  C  C81  1  0.39660000  0.96820000  0.17670000  1.0
  C  C82  1  0.14470000  0.53470000  0.88190000  1.0
  C  C83  1  0.16440000  0.48670000  0.97600000  1.0
  C  C84  1  0.20770000  0.48660000  0.17000000  1.0
  C  C85  1  0.22820000  0.53550000  0.27320000  1.0
  C  C86  1  0.20410000  0.58530000  0.16600000  1.0
  C  C87  1  0.16530000  0.58430000  0.98500000  1.0
  C  C88  1  0.10340000  0.53180000  0.67670000  1.0
  C  C89  1  0.64470000  0.03470000  0.38190000  1.0
  C  C90  1  0.66440000  0.98670000  0.47600000  1.0
  C  C91  1  0.70770000  0.98660000  0.67000000  1.0
  C  C92  1  0.72820000  0.03550000  0.77320000  1.0
  C  C93  1  0.70410000  0.08530000  0.66600000  1.0
  C  C94  1  0.66530000  0.08430000  0.48500000  1.0
  C  C95  1  0.60340000  0.03180000  0.17670000  1.0
  C  C96  1  0.46530000  0.14470000  0.11810000  1.0
  C  C97  1  0.51330000  0.16440000  0.02400000  1.0
  C  C98  1  0.51340000  0.20770000  0.83000000  1.0
  C  C99  1  0.46450000  0.22820000  0.72680000  1.0
  C  C100  1  0.41470000  0.20410000  0.83400000  1.0
  C  C101  1  0.41570000  0.16530000  0.01500000  1.0
  C  C102  1  0.46820000  0.10340000  0.32330000  1.0
  C  C103  1  0.96530000  0.64470000  0.61810000  1.0
  C  C104  1  0.01330000  0.66440000  0.52400000  1.0
  C  C105  1  0.01340000  0.70770000  0.33000000  1.0
  C  C106  1  0.96450000  0.72820000  0.22680000  1.0
  C  C107  1  0.91470000  0.70410000  0.33400000  1.0
  C  C108  1  0.91570000  0.66530000  0.51500000  1.0
  C  C109  1  0.96820000  0.60340000  0.82330000  1.0
  C  C110  1  0.53470000  0.85530000  0.11810000  1.0
  C  C111  1  0.48670000  0.83560000  0.02400000  1.0
  C  C112  1  0.48660000  0.79230000  0.83000000  1.0
  C  C113  1  0.53550000  0.77180000  0.72680000  1.0
  C  C114  1  0.58530000  0.79590000  0.83400000  1.0
  C  C115  1  0.58430000  0.83470000  0.01500000  1.0
  C  C116  1  0.53180000  0.89660000  0.32330000  1.0
  C  C117  1  0.03470000  0.35530000  0.61810000  1.0
  C  C118  1  0.98670000  0.33560000  0.52400000  1.0
  C  C119  1  0.98660000  0.29230000  0.33000000  1.0
  C  C120  1  0.03550000  0.27180000  0.22680000  1.0
  C  C121  1  0.08530000  0.29590000  0.33400000  1.0
  C  C122  1  0.08430000  0.33470000  0.51500000  1.0
  C  C123  1  0.03180000  0.39660000  0.82330000  1.0
  C  C124  1  0.64470000  0.46530000  0.86810000  1.0
  C  C125  1  0.66440000  0.51330000  0.77400000  1.0
  C  C126  1  0.70770000  0.51340000  0.58000000  1.0
  C  C127  1  0.72820000  0.46450000  0.47680000  1.0
  C  C128  1  0.70410000  0.41470000  0.58400000  1.0
  C  C129  1  0.66530000  0.41570000  0.76500000  1.0
  C  C130  1  0.60340000  0.46820000  0.07330000  1.0
  C  C131  1  0.14470000  0.96530000  0.36810000  1.0
  C  C132  1  0.16440000  0.01330000  0.27400000  1.0
  C  C133  1  0.20770000  0.01340000  0.08000000  1.0
  C  C134  1  0.22820000  0.96450000  0.97680000  1.0
  C  C135  1  0.20410000  0.91470000  0.08400000  1.0
  C  C136  1  0.16530000  0.91570000  0.26500000  1.0
  C  C137  1  0.10340000  0.96820000  0.57330000  1.0
  C  C138  1  0.35530000  0.53470000  0.86810000  1.0
  C  C139  1  0.33560000  0.48670000  0.77400000  1.0
  C  C140  1  0.29230000  0.48660000  0.58000000  1.0
  C  C141  1  0.27180000  0.53550000  0.47680000  1.0
  C  C142  1  0.29590000  0.58530000  0.58400000  1.0
  C  C143  1  0.33470000  0.58430000  0.76500000  1.0
  C  C144  1  0.39660000  0.53180000  0.07330000  1.0
  C  C145  1  0.85530000  0.03470000  0.36810000  1.0
  C  C146  1  0.83560000  0.98670000  0.27400000  1.0
  C  C147  1  0.79230000  0.98660000  0.08000000  1.0
  C  C148  1  0.77180000  0.03550000  0.97680000  1.0
  C  C149  1  0.79590000  0.08530000  0.08400000  1.0
  C  C150  1  0.83470000  0.08430000  0.26500000  1.0
  C  C151  1  0.89660000  0.03180000  0.57330000  1.0
  C  C152  1  0.03470000  0.14470000  0.63190000  1.0
  C  C153  1  0.98670000  0.16440000  0.72600000  1.0
  C  C154  1  0.98660000  0.20770000  0.92000000  1.0
  C  C155  1  0.03550000  0.22820000  0.02320000  1.0
  C  C156  1  0.08530000  0.20410000  0.91600000  1.0
  C  C157  1  0.08430000  0.16530000  0.73500000  1.0
  C  C158  1  0.03180000  0.10340000  0.42670000  1.0
  C  C159  1  0.53470000  0.64470000  0.13190000  1.0
  C  C160  1  0.48670000  0.66440000  0.22600000  1.0
  C  C161  1  0.48660000  0.70770000  0.42000000  1.0
  C  C162  1  0.53550000  0.72820000  0.52320000  1.0
  C  C163  1  0.58530000  0.70410000  0.41600000  1.0
  C  C164  1  0.58430000  0.66530000  0.23500000  1.0
  C  C165  1  0.53180000  0.60340000  0.92670000  1.0
  C  C166  1  0.96530000  0.85530000  0.63190000  1.0
  C  C167  1  0.01330000  0.83560000  0.72600000  1.0
  C  C168  1  0.01340000  0.79230000  0.92000000  1.0
  C  C169  1  0.96450000  0.77180000  0.02320000  1.0
  C  C170  1  0.91470000  0.79590000  0.91600000  1.0
  C  C171  1  0.91570000  0.83470000  0.73500000  1.0
  C  C172  1  0.96820000  0.89660000  0.42670000  1.0
  C  C173  1  0.46530000  0.35530000  0.13190000  1.0
  C  C174  1  0.51330000  0.33560000  0.22600000  1.0
  C  C175  1  0.51340000  0.29230000  0.42000000  1.0
  C  C176  1  0.46450000  0.27180000  0.52320000  1.0
  C  C177  1  0.41470000  0.29590000  0.41600000  1.0
  C  C178  1  0.41570000  0.33470000  0.23500000  1.0
  C  C179  1  0.46820000  0.39660000  0.92670000  1.0
  N  N180  1  0.92970000  0.47100000  0.51780000  1.0
  N  N181  1  0.42970000  0.97100000  0.01780000  1.0
  N  N182  1  0.07030000  0.52900000  0.51780000  1.0
  N  N183  1  0.57030000  0.02900000  0.01780000  1.0
  N  N184  1  0.47100000  0.07030000  0.48220000  1.0
  N  N185  1  0.97100000  0.57030000  0.98220000  1.0
  N  N186  1  0.52900000  0.92970000  0.48220000  1.0
  N  N187  1  0.02900000  0.42970000  0.98220000  1.0
  N  N188  1  0.57030000  0.47100000  0.23220000  1.0
  N  N189  1  0.07030000  0.97100000  0.73220000  1.0
  N  N190  1  0.42970000  0.52900000  0.23220000  1.0
  N  N191  1  0.92970000  0.02900000  0.73220000  1.0
  N  N192  1  0.02900000  0.07030000  0.26780000  1.0
  N  N193  1  0.52900000  0.57030000  0.76780000  1.0
  N  N194  1  0.97100000  0.92970000  0.26780000  1.0
  N  N195  1  0.47100000  0.42970000  0.76780000  1.0
