# generated using pymatgen
data_Zn5P4H9(CO3)8
_symmetry_space_group_name_H-M   'P 1'
_cell_length_a   10.24920000
_cell_length_b   11.07160000
_cell_length_c   12.89910000
_cell_angle_alpha   92.51800000
_cell_angle_beta   95.25500000
_cell_angle_gamma   107.33100000
_symmetry_Int_Tables_number   1
_chemical_formula_structural   Zn5P4H9(CO3)8
_chemical_formula_sum   'Zn10 P8 H18 C16 O48'
_cell_volume   1387.48928507
_cell_formula_units_Z   2
loop_
 _symmetry_equiv_pos_site_id
 _symmetry_equiv_pos_as_xyz
  1  'x, y, z'
loop_
 _atom_site_type_symbol
 _atom_site_label
 _atom_site_symmetry_multiplicity
 _atom_site_fract_x
 _atom_site_fract_y
 _atom_site_fract_z
 _atom_site_occupancy
  Zn  Zn0  1  0.61550000  0.84909000  0.66980000  1.0
  Zn  Zn1  1  0.97877000  0.71857000  0.98951000  1.0
  Zn  Zn2  1  0.38259000  0.64828000  0.32538000  1.0
  Zn  Zn3  1  0.92425000  0.55982000  0.41275000  1.0
  Zn  Zn4  1  0.08008000  0.94119000  0.58357000  1.0
  Zn  Zn5  1  0.38450000  0.15091000  0.33020000  1.0
  Zn  Zn6  1  0.02123000  0.28143000  0.01049000  1.0
  Zn  Zn7  1  0.61741000  0.35172000  0.67462000  1.0
  Zn  Zn8  1  0.07575000  0.44018000  0.58725000  1.0
  Zn  Zn9  1  0.91992000  0.05881000  0.41643000  1.0
  P  P10  1  0.84357000  0.91635000  0.87777000  1.0
  P  P11  1  0.15804000  0.56979000  0.11577000  1.0
  P  P12  1  0.77677000  0.77120000  0.47915000  1.0
  P  P13  1  0.22315000  0.72693000  0.51800000  1.0
  P  P14  1  0.15643000  0.08365000  0.12223000  1.0
  P  P15  1  0.84196000  0.43021000  0.88423000  1.0
  P  P16  1  0.22323000  0.22880000  0.52085000  1.0
  P  P17  1  0.77685000  0.27307000  0.48200000  1.0
  H  H18  1  0.75120000  0.04780000  0.90410000  1.0
  H  H19  1  0.00340000  0.09600000  0.73350000  1.0
  H  H20  1  0.00350000  0.40600000  0.27090000  1.0
  H  H21  1  0.58880000  0.60280000  0.27050000  1.0
  H  H22  1  0.38600000  0.92050000  0.67390000  1.0
  H  H23  1  0.07570000  0.01350000  0.85980000  1.0
  H  H24  1  0.92660000  0.48360000  0.14320000  1.0
  H  H25  1  0.76320000  0.75470000  0.29530000  1.0
  H  H26  1  0.23600000  0.74750000  0.70060000  1.0
  H  H27  1  0.24880000  0.95220000  0.09590000  1.0
  H  H28  1  0.99660000  0.90400000  0.26650000  1.0
  H  H29  1  0.99650000  0.59400000  0.72910000  1.0
  H  H30  1  0.41120000  0.39720000  0.72950000  1.0
  H  H31  1  0.61400000  0.07950000  0.32610000  1.0
  H  H32  1  0.92430000  0.98650000  0.14020000  1.0
  H  H33  1  0.07340000  0.51640000  0.85680000  1.0
  H  H34  1  0.23680000  0.24530000  0.70470000  1.0
  H  H35  1  0.76400000  0.25250000  0.29940000  1.0
  C  C36  1  0.00000000  0.95740000  0.81190000  1.0
  C  C37  1  0.03580000  0.83710000  0.78250000  1.0
  C  C38  1  0.00520000  0.54090000  0.18770000  1.0
  C  C39  1  0.97130000  0.66300000  0.21430000  1.0
  C  C40  1  0.69500000  0.75470000  0.34380000  1.0
  C  C41  1  0.63550000  0.86280000  0.32340000  1.0
  C  C42  1  0.30460000  0.74480000  0.65320000  1.0
  C  C43  1  0.36050000  0.63670000  0.67850000  1.0
  C  C44  1  0.00000000  0.04260000  0.18810000  1.0
  C  C45  1  0.96420000  0.16290000  0.21750000  1.0
  C  C46  1  0.99480000  0.45910000  0.81230000  1.0
  C  C47  1  0.02870000  0.33700000  0.78570000  1.0
  C  C48  1  0.30500000  0.24530000  0.65620000  1.0
  C  C49  1  0.36450000  0.13720000  0.67660000  1.0
  C  C50  1  0.69540000  0.25520000  0.34680000  1.0
  C  C51  1  0.63950000  0.36330000  0.32150000  1.0
  O  O52  1  0.72220000  0.84380000  0.80256000  1.0
  O  O53  1  0.83060000  0.04710000  0.91790000  1.0
  O  O54  1  0.86980000  0.84440000  0.97023000  1.0
  O  O55  1  0.98560000  0.01960000  0.71886000  1.0
  O  O56  1  0.06400000  0.77170000  0.85310000  1.0
  O  O57  1  0.03490000  0.80690000  0.68765000  1.0
  O  O58  1  0.13300000  0.64540000  0.02454000  1.0
  O  O59  1  0.28400000  0.64430000  0.18836000  1.0
  O  O60  1  0.16720000  0.43950000  0.07985000  1.0
  O  O61  1  0.02110000  0.48280000  0.28328000  1.0
  O  O62  1  0.97050000  0.69580000  0.30860000  1.0
  O  O63  1  0.94450000  0.72750000  0.14248000  1.0
  O  O64  1  0.82210000  0.65420000  0.49520000  1.0
  O  O65  1  0.89810000  0.89350000  0.48664000  1.0
  O  O66  1  0.66730000  0.77850000  0.54735000  1.0
  O  O67  1  0.58490000  0.63870000  0.32660000  1.0
  O  O68  1  0.71780000  0.97330000  0.32551000  1.0
  O  O69  1  0.50730000  0.83650000  0.30527000  1.0
  O  O70  1  0.10180000  0.60580000  0.51359000  1.0
  O  O71  1  0.17910000  0.84440000  0.50080000  1.0
  O  O72  1  0.33090000  0.71650000  0.44960000  1.0
  O  O73  1  0.41630000  0.85990000  0.67140000  1.0
  O  O74  1  0.27690000  0.52760000  0.68005000  1.0
  O  O75  1  0.48870000  0.66140000  0.69856000  1.0
  O  O76  1  0.27780000  0.15620000  0.19744000  1.0
  O  O77  1  0.16940000  0.95290000  0.08210000  1.0
  O  O78  1  0.13020000  0.15560000  0.02977000  1.0
  O  O79  1  0.01440000  0.98040000  0.28114000  1.0
  O  O80  1  0.93600000  0.22830000  0.14690000  1.0
  O  O81  1  0.96510000  0.19310000  0.31235000  1.0
  O  O82  1  0.86700000  0.35460000  0.97546000  1.0
  O  O83  1  0.71600000  0.35570000  0.81164000  1.0
  O  O84  1  0.83280000  0.56050000  0.92015000  1.0
  O  O85  1  0.97890000  0.51720000  0.71672000  1.0
  O  O86  1  0.02950000  0.30420000  0.69140000  1.0
  O  O87  1  0.05550000  0.27250000  0.85752000  1.0
  O  O88  1  0.17790000  0.34580000  0.50480000  1.0
  O  O89  1  0.10190000  0.10650000  0.51336000  1.0
  O  O90  1  0.33270000  0.22150000  0.45265000  1.0
  O  O91  1  0.41510000  0.36130000  0.67340000  1.0
  O  O92  1  0.28220000  0.02670000  0.67449000  1.0
  O  O93  1  0.49270000  0.16350000  0.69473000  1.0
  O  O94  1  0.89820000  0.39420000  0.48641000  1.0
  O  O95  1  0.82090000  0.15560000  0.49920000  1.0
  O  O96  1  0.66910000  0.28350000  0.55040000  1.0
  O  O97  1  0.58370000  0.14010000  0.32860000  1.0
  O  O98  1  0.72310000  0.47240000  0.31995000  1.0
  O  O99  1  0.51130000  0.33860000  0.30144000  1.0
