# generated using pymatgen
data_Cd5Mo16P8H48C60(N2O9)6
_symmetry_space_group_name_H-M   'P 1'
_cell_length_a   12.96760000
_cell_length_b   16.17010000
_cell_length_c   30.90550000
_cell_angle_alpha   90.00000000
_cell_angle_beta   91.24900000
_cell_angle_gamma   90.00000000
_symmetry_Int_Tables_number   1
_chemical_formula_structural   Cd5Mo16P8H48C60(N2O9)6
_chemical_formula_sum   'Cd10 Mo32 P16 H96 C120 N24 O108'
_cell_volume   6478.95387774
_cell_formula_units_Z   2
loop_
 _symmetry_equiv_pos_site_id
 _symmetry_equiv_pos_as_xyz
  1  'x, y, z'
loop_
 _atom_site_type_symbol
 _atom_site_label
 _atom_site_symmetry_multiplicity
 _atom_site_fract_x
 _atom_site_fract_y
 _atom_site_fract_z
 _atom_site_occupancy
  Cd  Cd0  1  0.97790000  0.54053000  0.05717000  1.0
  Cd  Cd1  1  0.10592000  0.74769000  0.06606000  1.0
  Cd  Cd2  1  0.02210000  0.04053000  0.44283000  1.0
  Cd  Cd3  1  0.89408000  0.24769000  0.43394000  1.0
  Cd  Cd4  1  0.02210000  0.45947000  0.94283000  1.0
  Cd  Cd5  1  0.89408000  0.25231000  0.93394000  1.0
  Cd  Cd6  1  0.97790000  0.95947000  0.55717000  1.0
  Cd  Cd7  1  0.10592000  0.75231000  0.56606000  1.0
  Cd  Cd8  1  0.50000000  0.50000000  0.00000000  1.0
  Cd  Cd9  1  0.50000000  0.00000000  0.50000000  1.0
  Mo  Mo10  1  0.27865000  0.39430000  0.93446000  1.0
  Mo  Mo11  1  0.30006000  0.54740000  0.90769000  1.0
  Mo  Mo12  1  0.35138000  0.70763000  0.98363000  1.0
  Mo  Mo13  1  0.36347000  0.67420000  0.06629000  1.0
  Mo  Mo14  1  0.33325000  0.46690000  0.10179000  1.0
  Mo  Mo15  1  0.30469000  0.34601000  0.04647000  1.0
  Mo  Mo16  1  0.19492000  0.65353000  0.23691000  1.0
  Mo  Mo17  1  0.10979000  0.68964000  0.30791000  1.0
  Mo  Mo18  1  0.72135000  0.89430000  0.56554000  1.0
  Mo  Mo19  1  0.69994000  0.04740000  0.59231000  1.0
  Mo  Mo20  1  0.64862000  0.20763000  0.51637000  1.0
  Mo  Mo21  1  0.63653000  0.17420000  0.43371000  1.0
  Mo  Mo22  1  0.66675000  0.96690000  0.39821000  1.0
  Mo  Mo23  1  0.69531000  0.84601000  0.45353000  1.0
  Mo  Mo24  1  0.80508000  0.15353000  0.26309000  1.0
  Mo  Mo25  1  0.89021000  0.18964000  0.19209000  1.0
  Mo  Mo26  1  0.72135000  0.60570000  0.06554000  1.0
  Mo  Mo27  1  0.69994000  0.45260000  0.09231000  1.0
  Mo  Mo28  1  0.64862000  0.29237000  0.01637000  1.0
  Mo  Mo29  1  0.63653000  0.32580000  0.93371000  1.0
  Mo  Mo30  1  0.66675000  0.53310000  0.89821000  1.0
  Mo  Mo31  1  0.69531000  0.65399000  0.95353000  1.0
  Mo  Mo32  1  0.80508000  0.34647000  0.76309000  1.0
  Mo  Mo33  1  0.89021000  0.31036000  0.69209000  1.0
  Mo  Mo34  1  0.27865000  0.10570000  0.43446000  1.0
  Mo  Mo35  1  0.30006000  0.95260000  0.40769000  1.0
  Mo  Mo36  1  0.35138000  0.79237000  0.48363000  1.0
  Mo  Mo37  1  0.36347000  0.82580000  0.56629000  1.0
  Mo  Mo38  1  0.33325000  0.03310000  0.60179000  1.0
  Mo  Mo39  1  0.30469000  0.15399000  0.54647000  1.0
  Mo  Mo40  1  0.19492000  0.84647000  0.73691000  1.0
  Mo  Mo41  1  0.10979000  0.81036000  0.80791000  1.0
  P  P42  1  0.20921000  0.53497000  0.00865000  1.0
  P  P43  1  0.17620000  0.61760000  0.13060000  1.0
  P  P44  1  0.88515000  0.73024000  0.01568000  1.0
  P  P45  1  0.16830000  0.72564000  0.90813000  1.0
  P  P46  1  0.79079000  0.03497000  0.49135000  1.0
  P  P47  1  0.82380000  0.11760000  0.36940000  1.0
  P  P48  1  0.11485000  0.23024000  0.48432000  1.0
  P  P49  1  0.83170000  0.22564000  0.59187000  1.0
  P  P50  1  0.79079000  0.46503000  0.99135000  1.0
  P  P51  1  0.82380000  0.38240000  0.86940000  1.0
  P  P52  1  0.11485000  0.26976000  0.98432000  1.0
  P  P53  1  0.83170000  0.27436000  0.09187000  1.0
  P  P54  1  0.20921000  0.96503000  0.50865000  1.0
  P  P55  1  0.17620000  0.88240000  0.63060000  1.0
  P  P56  1  0.88515000  0.76976000  0.51568000  1.0
  P  P57  1  0.16830000  0.77436000  0.40813000  1.0
  H  H58  1  0.20710000  0.90090000  0.01850000  1.0
  H  H59  1  0.19320000  0.04390000  0.01150000  1.0
  H  H60  1  0.05760000  0.11200000  0.04570000  1.0
  H  H61  1  0.96360000  0.03900000  0.09610000  1.0
  H  H62  1  0.89360000  0.96790000  0.14460000  1.0
  H  H63  1  0.80680000  0.88650000  0.19260000  1.0
  H  H64  1  0.84300000  0.74070000  0.19470000  1.0
  H  H65  1  0.95770000  0.69120000  0.14530000  1.0
  H  H66  1  0.10270000  0.83060000  0.20830000  1.0
  H  H67  1  0.14940000  0.95820000  0.17550000  1.0
  H  H68  1  0.31820000  0.96790000  0.15280000  1.0
  H  H69  1  0.43330000  0.86120000  0.16110000  1.0
  H  H70  1  0.54470000  0.76160000  0.17740000  1.0
  H  H71  1  0.63420000  0.64290000  0.18780000  1.0
  H  H72  1  0.55680000  0.52910000  0.21510000  1.0
  H  H73  1  0.38180000  0.53390000  0.23030000  1.0
  H  H74  1  0.89660000  0.61630000  0.33810000  1.0
  H  H75  1  0.72580000  0.64780000  0.34280000  1.0
  H  H76  1  0.67360000  0.77990000  0.32630000  1.0
  H  H77  1  0.79210000  0.87960000  0.31000000  1.0
  H  H78  1  0.91030000  0.96680000  0.29760000  1.0
  H  H79  1  0.04750000  0.05580000  0.28600000  1.0
  H  H80  1  0.21320000  0.00380000  0.28630000  1.0
  H  H81  1  0.23920000  0.86440000  0.29950000  1.0
  H  H82  1  0.79290000  0.40090000  0.48150000  1.0
  H  H83  1  0.80680000  0.54390000  0.48850000  1.0
  H  H84  1  0.94240000  0.61200000  0.45430000  1.0
  H  H85  1  0.03640000  0.53900000  0.40390000  1.0
  H  H86  1  0.10640000  0.46790000  0.35540000  1.0
  H  H87  1  0.19320000  0.38650000  0.30740000  1.0
  H  H88  1  0.15700000  0.24070000  0.30530000  1.0
  H  H89  1  0.04230000  0.19120000  0.35470000  1.0
  H  H90  1  0.89730000  0.33060000  0.29170000  1.0
  H  H91  1  0.85060000  0.45820000  0.32450000  1.0
  H  H92  1  0.68180000  0.46790000  0.34720000  1.0
  H  H93  1  0.56670000  0.36120000  0.33890000  1.0
  H  H94  1  0.45530000  0.26160000  0.32260000  1.0
  H  H95  1  0.36580000  0.14290000  0.31220000  1.0
  H  H96  1  0.44320000  0.02910000  0.28490000  1.0
  H  H97  1  0.61820000  0.03390000  0.26970000  1.0
  H  H98  1  0.10340000  0.11630000  0.16190000  1.0
  H  H99  1  0.27420000  0.14780000  0.15720000  1.0
  H  H100  1  0.32640000  0.27990000  0.17370000  1.0
  H  H101  1  0.20790000  0.37960000  0.19000000  1.0
  H  H102  1  0.08970000  0.46680000  0.20240000  1.0
  H  H103  1  0.95250000  0.55580000  0.21400000  1.0
  H  H104  1  0.78680000  0.50380000  0.21370000  1.0
  H  H105  1  0.76080000  0.36440000  0.20050000  1.0
  H  H106  1  0.79290000  0.09910000  0.98150000  1.0
  H  H107  1  0.80680000  0.95610000  0.98850000  1.0
  H  H108  1  0.94240000  0.88800000  0.95430000  1.0
  H  H109  1  0.03640000  0.96100000  0.90390000  1.0
  H  H110  1  0.10640000  0.03210000  0.85540000  1.0
  H  H111  1  0.19320000  0.11350000  0.80740000  1.0
  H  H112  1  0.15700000  0.25930000  0.80530000  1.0
  H  H113  1  0.04230000  0.30880000  0.85470000  1.0
  H  H114  1  0.89730000  0.16940000  0.79170000  1.0
  H  H115  1  0.85060000  0.04180000  0.82450000  1.0
  H  H116  1  0.68180000  0.03210000  0.84720000  1.0
  H  H117  1  0.56670000  0.13880000  0.83890000  1.0
  H  H118  1  0.45530000  0.23840000  0.82260000  1.0
  H  H119  1  0.36580000  0.35710000  0.81220000  1.0
  H  H120  1  0.44320000  0.47090000  0.78490000  1.0
  H  H121  1  0.61820000  0.46610000  0.76970000  1.0
  H  H122  1  0.10340000  0.38370000  0.66190000  1.0
  H  H123  1  0.27420000  0.35220000  0.65720000  1.0
  H  H124  1  0.32640000  0.22010000  0.67370000  1.0
  H  H125  1  0.20790000  0.12040000  0.69000000  1.0
  H  H126  1  0.08970000  0.03320000  0.70240000  1.0
  H  H127  1  0.95250000  0.94420000  0.71400000  1.0
  H  H128  1  0.78680000  0.99620000  0.71370000  1.0
  H  H129  1  0.76080000  0.13560000  0.70050000  1.0
  H  H130  1  0.20710000  0.59910000  0.51850000  1.0
  H  H131  1  0.19320000  0.45610000  0.51150000  1.0
  H  H132  1  0.05760000  0.38800000  0.54570000  1.0
  H  H133  1  0.96360000  0.46100000  0.59610000  1.0
  H  H134  1  0.89360000  0.53210000  0.64460000  1.0
  H  H135  1  0.80680000  0.61350000  0.69260000  1.0
  H  H136  1  0.84300000  0.75930000  0.69470000  1.0
  H  H137  1  0.95770000  0.80880000  0.64530000  1.0
  H  H138  1  0.10270000  0.66940000  0.70830000  1.0
  H  H139  1  0.14940000  0.54180000  0.67550000  1.0
  H  H140  1  0.31820000  0.53210000  0.65280000  1.0
  H  H141  1  0.43330000  0.63880000  0.66110000  1.0
  H  H142  1  0.54470000  0.73840000  0.67740000  1.0
  H  H143  1  0.63420000  0.85710000  0.68780000  1.0
  H  H144  1  0.55680000  0.97090000  0.71510000  1.0
  H  H145  1  0.38180000  0.96610000  0.73030000  1.0
  H  H146  1  0.89660000  0.88370000  0.83810000  1.0
  H  H147  1  0.72580000  0.85220000  0.84280000  1.0
  H  H148  1  0.67360000  0.72010000  0.82630000  1.0
  H  H149  1  0.79210000  0.62040000  0.81000000  1.0
  H  H150  1  0.91030000  0.53320000  0.79760000  1.0
  H  H151  1  0.04750000  0.44420000  0.78600000  1.0
  H  H152  1  0.21320000  0.49620000  0.78630000  1.0
  H  H153  1  0.23920000  0.63560000  0.79950000  1.0
  C  C154  1  0.16010000  0.92930000  0.03530000  1.0
  C  C155  1  0.14900000  0.01510000  0.02950000  1.0
  C  C156  1  0.07090000  0.05640000  0.05100000  1.0
  C  C157  1  0.01400000  0.01270000  0.08020000  1.0
  C  C158  1  0.90490000  0.91110000  0.14520000  1.0
  C  C159  1  0.85410000  0.86320000  0.17400000  1.0
  C  C160  1  0.87460000  0.77580000  0.17510000  1.0
  C  C161  1  0.94350000  0.74760000  0.14570000  1.0
  C  C162  1  0.03350000  0.92590000  0.08590000  1.0
  C  C163  1  0.97270000  0.87620000  0.11700000  1.0
  C  C164  1  0.17040000  0.83880000  0.19980000  1.0
  C  C165  1  0.19630000  0.91520000  0.17950000  1.0
  C  C166  1  0.29660000  0.91960000  0.16620000  1.0
  C  C167  1  0.36690000  0.85670000  0.17160000  1.0
  C  C168  1  0.51230000  0.71530000  0.18870000  1.0
  C  C169  1  0.56490000  0.64500000  0.19470000  1.0
  C  C170  1  0.51940000  0.57750000  0.21060000  1.0
  C  C171  1  0.41400000  0.58130000  0.22020000  1.0
  C  C172  1  0.33640000  0.78780000  0.19280000  1.0
  C  C173  1  0.40450000  0.71880000  0.19980000  1.0
  C  C174  1  0.87510000  0.67010000  0.33240000  1.0
  C  C175  1  0.77330000  0.68800000  0.33500000  1.0
  C  C176  1  0.74320000  0.76630000  0.32570000  1.0
  C  C177  1  0.81330000  0.82560000  0.31560000  1.0
  C  C178  1  0.97770000  0.94710000  0.29760000  1.0
  C  C179  1  0.05920000  0.99980000  0.29070000  1.0
  C  C180  1  0.15740000  0.96910000  0.29100000  1.0
  C  C181  1  0.17230000  0.88520000  0.29820000  1.0
  C  C182  1  0.91560000  0.80440000  0.31380000  1.0
  C  C183  1  0.99840000  0.86410000  0.30460000  1.0
  C  C184  1  0.83990000  0.42930000  0.46470000  1.0
  C  C185  1  0.85100000  0.51510000  0.47050000  1.0
  C  C186  1  0.92910000  0.55640000  0.44900000  1.0
  C  C187  1  0.98600000  0.51270000  0.41980000  1.0
  C  C188  1  0.09510000  0.41110000  0.35480000  1.0
  C  C189  1  0.14590000  0.36320000  0.32600000  1.0
  C  C190  1  0.12540000  0.27580000  0.32490000  1.0
  C  C191  1  0.05650000  0.24760000  0.35430000  1.0
  C  C192  1  0.96650000  0.42590000  0.41410000  1.0
  C  C193  1  0.02730000  0.37620000  0.38300000  1.0
  C  C194  1  0.82960000  0.33880000  0.30020000  1.0
  C  C195  1  0.80370000  0.41520000  0.32050000  1.0
  C  C196  1  0.70340000  0.41960000  0.33380000  1.0
  C  C197  1  0.63310000  0.35670000  0.32840000  1.0
  C  C198  1  0.48770000  0.21530000  0.31130000  1.0
  C  C199  1  0.43510000  0.14500000  0.30530000  1.0
  C  C200  1  0.48060000  0.07750000  0.28940000  1.0
  C  C201  1  0.58600000  0.08130000  0.27980000  1.0
  C  C202  1  0.66360000  0.28780000  0.30720000  1.0
  C  C203  1  0.59550000  0.21880000  0.30020000  1.0
  C  C204  1  0.12490000  0.17010000  0.16760000  1.0
  C  C205  1  0.22670000  0.18800000  0.16500000  1.0
  C  C206  1  0.25680000  0.26630000  0.17430000  1.0
  C  C207  1  0.18670000  0.32560000  0.18440000  1.0
  C  C208  1  0.02230000  0.44710000  0.20240000  1.0
  C  C209  1  0.94080000  0.49980000  0.20930000  1.0
  C  C210  1  0.84260000  0.46910000  0.20900000  1.0
  C  C211  1  0.82770000  0.38520000  0.20180000  1.0
  C  C212  1  0.08440000  0.30440000  0.18620000  1.0
  C  C213  1  0.00160000  0.36410000  0.19540000  1.0
  C  C214  1  0.83990000  0.07070000  0.96470000  1.0
  C  C215  1  0.85100000  0.98490000  0.97050000  1.0
  C  C216  1  0.92910000  0.94360000  0.94900000  1.0
  C  C217  1  0.98600000  0.98730000  0.91980000  1.0
  C  C218  1  0.09510000  0.08890000  0.85480000  1.0
  C  C219  1  0.14590000  0.13680000  0.82600000  1.0
  C  C220  1  0.12540000  0.22420000  0.82490000  1.0
  C  C221  1  0.05650000  0.25240000  0.85430000  1.0
  C  C222  1  0.96650000  0.07410000  0.91410000  1.0
  C  C223  1  0.02730000  0.12380000  0.88300000  1.0
  C  C224  1  0.82960000  0.16120000  0.80020000  1.0
  C  C225  1  0.80370000  0.08480000  0.82050000  1.0
  C  C226  1  0.70340000  0.08040000  0.83380000  1.0
  C  C227  1  0.63310000  0.14330000  0.82840000  1.0
  C  C228  1  0.48770000  0.28470000  0.81130000  1.0
  C  C229  1  0.43510000  0.35500000  0.80530000  1.0
  C  C230  1  0.48060000  0.42250000  0.78940000  1.0
  C  C231  1  0.58600000  0.41870000  0.77980000  1.0
  C  C232  1  0.66360000  0.21220000  0.80720000  1.0
  C  C233  1  0.59550000  0.28120000  0.80020000  1.0
  C  C234  1  0.12490000  0.32990000  0.66760000  1.0
  C  C235  1  0.22670000  0.31200000  0.66500000  1.0
  C  C236  1  0.25680000  0.23370000  0.67430000  1.0
  C  C237  1  0.18670000  0.17440000  0.68440000  1.0
  C  C238  1  0.02230000  0.05290000  0.70240000  1.0
  C  C239  1  0.94080000  0.00020000  0.70930000  1.0
  C  C240  1  0.84260000  0.03090000  0.70900000  1.0
  C  C241  1  0.82770000  0.11480000  0.70180000  1.0
  C  C242  1  0.08440000  0.19560000  0.68620000  1.0
  C  C243  1  0.00160000  0.13590000  0.69540000  1.0
  C  C244  1  0.16010000  0.57070000  0.53530000  1.0
  C  C245  1  0.14900000  0.48490000  0.52950000  1.0
  C  C246  1  0.07090000  0.44360000  0.55100000  1.0
  C  C247  1  0.01400000  0.48730000  0.58020000  1.0
  C  C248  1  0.90490000  0.58890000  0.64520000  1.0
  C  C249  1  0.85410000  0.63680000  0.67400000  1.0
  C  C250  1  0.87460000  0.72420000  0.67510000  1.0
  C  C251  1  0.94350000  0.75240000  0.64570000  1.0
  C  C252  1  0.03350000  0.57410000  0.58590000  1.0
  C  C253  1  0.97270000  0.62380000  0.61700000  1.0
  C  C254  1  0.17040000  0.66120000  0.69980000  1.0
  C  C255  1  0.19630000  0.58480000  0.67950000  1.0
  C  C256  1  0.29660000  0.58040000  0.66620000  1.0
  C  C257  1  0.36690000  0.64330000  0.67160000  1.0
  C  C258  1  0.51230000  0.78470000  0.68870000  1.0
  C  C259  1  0.56490000  0.85500000  0.69470000  1.0
  C  C260  1  0.51940000  0.92250000  0.71060000  1.0
  C  C261  1  0.41400000  0.91870000  0.72020000  1.0
  C  C262  1  0.33640000  0.71220000  0.69280000  1.0
  C  C263  1  0.40450000  0.78120000  0.69980000  1.0
  C  C264  1  0.87510000  0.82990000  0.83240000  1.0
  C  C265  1  0.77330000  0.81200000  0.83500000  1.0
  C  C266  1  0.74320000  0.73370000  0.82570000  1.0
  C  C267  1  0.81330000  0.67440000  0.81560000  1.0
  C  C268  1  0.97770000  0.55290000  0.79760000  1.0
  C  C269  1  0.05920000  0.50020000  0.79070000  1.0
  C  C270  1  0.15740000  0.53090000  0.79100000  1.0
  C  C271  1  0.17230000  0.61480000  0.79820000  1.0
  C  C272  1  0.91560000  0.69560000  0.81380000  1.0
  C  C273  1  0.99840000  0.63590000  0.80460000  1.0
  N  N274  1  0.10680000  0.88830000  0.06320000  1.0
  N  N275  1  0.99150000  0.79550000  0.11760000  1.0
  N  N276  1  0.23770000  0.78000000  0.20710000  1.0
  N  N277  1  0.35870000  0.64990000  0.21540000  1.0
  N  N278  1  0.94630000  0.72640000  0.32190000  1.0
  N  N279  1  0.09290000  0.83350000  0.30360000  1.0
  N  N280  1  0.89320000  0.38830000  0.43680000  1.0
  N  N281  1  0.00850000  0.29550000  0.38240000  1.0
  N  N282  1  0.76230000  0.28000000  0.29290000  1.0
  N  N283  1  0.64130000  0.14990000  0.28460000  1.0
  N  N284  1  0.05370000  0.22640000  0.17810000  1.0
  N  N285  1  0.90710000  0.33350000  0.19640000  1.0
  N  N286  1  0.89320000  0.11170000  0.93680000  1.0
  N  N287  1  0.00850000  0.20450000  0.88240000  1.0
  N  N288  1  0.76230000  0.22000000  0.79290000  1.0
  N  N289  1  0.64130000  0.35010000  0.78460000  1.0
  N  N290  1  0.05370000  0.27360000  0.67810000  1.0
  N  N291  1  0.90710000  0.16650000  0.69640000  1.0
  N  N292  1  0.10680000  0.61170000  0.56320000  1.0
  N  N293  1  0.99150000  0.70450000  0.61760000  1.0
  N  N294  1  0.23770000  0.72000000  0.70710000  1.0
  N  N295  1  0.35870000  0.85010000  0.71540000  1.0
  N  N296  1  0.94630000  0.77360000  0.82190000  1.0
  N  N297  1  0.09290000  0.66650000  0.80360000  1.0
  O  O298  1  0.17930000  0.47600000  0.91327000  1.0
  O  O299  1  0.39330000  0.47360000  0.94112000  1.0
  O  O300  1  0.24030000  0.44450000  0.99934000  1.0
  O  O301  1  0.86210000  0.66370000  0.04998000  1.0
  O  O302  1  0.35280000  0.32160000  0.98259000  1.0
  O  O303  1  0.43740000  0.62870000  0.01662000  1.0
  O  O304  1  0.25780000  0.73040000  0.03113000  1.0
  O  O305  1  0.25430000  0.68300000  0.11383000  1.0
  O  O306  1  0.25980000  0.55910000  0.05216000  1.0
  O  O307  1  0.42310000  0.57570000  0.10185000  1.0
  O  O308  1  0.41250000  0.43160000  0.05126000  1.0
  O  O309  1  0.21620000  0.39720000  0.08802000  1.0
  O  O310  1  0.82770000  0.71360000  0.97356000  1.0
  O  O311  1  0.25560000  0.59150000  0.97377000  1.0
  O  O312  1  0.39860000  0.64490000  0.92689000  1.0
  O  O313  1  0.19620000  0.63950000  0.89321000  1.0
  O  O314  1  0.24020000  0.75850000  0.94369000  1.0
  O  O315  1  0.22890000  0.53370000  0.13614000  1.0
  O  O316  1  0.09250000  0.54150000  0.00608000  1.0
  O  O317  1  0.08540000  0.61970000  0.09843000  1.0
  O  O318  1  0.99970000  0.73320000  0.00908000  1.0
  O  O319  1  0.85360000  0.81650000  0.03345000  1.0
  O  O320  1  0.05690000  0.72040000  0.92629000  1.0
  O  O321  1  0.05980000  0.69540000  0.24839000  1.0
  O  O322  1  0.25070000  0.69980000  0.29073000  1.0
  O  O323  1  0.13840000  0.64550000  0.17449000  1.0
  O  O324  1  0.16420000  0.78410000  0.87009000  1.0
  O  O325  1  0.82070000  0.97600000  0.58673000  1.0
  O  O326  1  0.60670000  0.97360000  0.55888000  1.0
  O  O327  1  0.75970000  0.94450000  0.50066000  1.0
  O  O328  1  0.13790000  0.16370000  0.45002000  1.0
  O  O329  1  0.64720000  0.82160000  0.51741000  1.0
  O  O330  1  0.56260000  0.12870000  0.48338000  1.0
  O  O331  1  0.74220000  0.23040000  0.46887000  1.0
  O  O332  1  0.74570000  0.18300000  0.38617000  1.0
  O  O333  1  0.74020000  0.05910000  0.44784000  1.0
  O  O334  1  0.57690000  0.07570000  0.39815000  1.0
  O  O335  1  0.58750000  0.93160000  0.44874000  1.0
  O  O336  1  0.78380000  0.89720000  0.41198000  1.0
  O  O337  1  0.17230000  0.21360000  0.52644000  1.0
  O  O338  1  0.74440000  0.09150000  0.52623000  1.0
  O  O339  1  0.60140000  0.14490000  0.57311000  1.0
  O  O340  1  0.80380000  0.13950000  0.60679000  1.0
  O  O341  1  0.75980000  0.25850000  0.55631000  1.0
  O  O342  1  0.77110000  0.03370000  0.36386000  1.0
  O  O343  1  0.90750000  0.04150000  0.49392000  1.0
  O  O344  1  0.91460000  0.11970000  0.40157000  1.0
  O  O345  1  0.00030000  0.23320000  0.49092000  1.0
  O  O346  1  0.14640000  0.31650000  0.46655000  1.0
  O  O347  1  0.94310000  0.22040000  0.57371000  1.0
  O  O348  1  0.94020000  0.19540000  0.25161000  1.0
  O  O349  1  0.74930000  0.19980000  0.20927000  1.0
  O  O350  1  0.86160000  0.14550000  0.32551000  1.0
  O  O351  1  0.83580000  0.28410000  0.62991000  1.0
  O  O352  1  0.82070000  0.52400000  0.08673000  1.0
  O  O353  1  0.60670000  0.52640000  0.05888000  1.0
  O  O354  1  0.75970000  0.55550000  0.00066000  1.0
  O  O355  1  0.13790000  0.33630000  0.95002000  1.0
  O  O356  1  0.64720000  0.67840000  0.01741000  1.0
  O  O357  1  0.56260000  0.37130000  0.98338000  1.0
  O  O358  1  0.74220000  0.26960000  0.96887000  1.0
  O  O359  1  0.74570000  0.31700000  0.88617000  1.0
  O  O360  1  0.74020000  0.44090000  0.94784000  1.0
  O  O361  1  0.57690000  0.42430000  0.89815000  1.0
  O  O362  1  0.58750000  0.56840000  0.94874000  1.0
  O  O363  1  0.78380000  0.60280000  0.91198000  1.0
  O  O364  1  0.17230000  0.28640000  0.02644000  1.0
  O  O365  1  0.74440000  0.40850000  0.02623000  1.0
  O  O366  1  0.60140000  0.35510000  0.07311000  1.0
  O  O367  1  0.80380000  0.36050000  0.10679000  1.0
  O  O368  1  0.75980000  0.24150000  0.05631000  1.0
  O  O369  1  0.77110000  0.46630000  0.86386000  1.0
  O  O370  1  0.90750000  0.45850000  0.99392000  1.0
  O  O371  1  0.91460000  0.38030000  0.90157000  1.0
  O  O372  1  0.00030000  0.26680000  0.99092000  1.0
  O  O373  1  0.14640000  0.18350000  0.96655000  1.0
  O  O374  1  0.94310000  0.27960000  0.07371000  1.0
  O  O375  1  0.94020000  0.30460000  0.75161000  1.0
  O  O376  1  0.74930000  0.30020000  0.70927000  1.0
  O  O377  1  0.86160000  0.35450000  0.82551000  1.0
  O  O378  1  0.83580000  0.21590000  0.12991000  1.0
  O  O379  1  0.17930000  0.02400000  0.41327000  1.0
  O  O380  1  0.39330000  0.02640000  0.44112000  1.0
  O  O381  1  0.24030000  0.05550000  0.49934000  1.0
  O  O382  1  0.86210000  0.83630000  0.54998000  1.0
  O  O383  1  0.35280000  0.17840000  0.48259000  1.0
  O  O384  1  0.43740000  0.87130000  0.51662000  1.0
  O  O385  1  0.25780000  0.76960000  0.53113000  1.0
  O  O386  1  0.25430000  0.81700000  0.61383000  1.0
  O  O387  1  0.25980000  0.94090000  0.55216000  1.0
  O  O388  1  0.42310000  0.92430000  0.60185000  1.0
  O  O389  1  0.41250000  0.06840000  0.55126000  1.0
  O  O390  1  0.21620000  0.10280000  0.58802000  1.0
  O  O391  1  0.82770000  0.78640000  0.47356000  1.0
  O  O392  1  0.25560000  0.90850000  0.47377000  1.0
  O  O393  1  0.39860000  0.85510000  0.42689000  1.0
  O  O394  1  0.19620000  0.86050000  0.39321000  1.0
  O  O395  1  0.24020000  0.74150000  0.44369000  1.0
  O  O396  1  0.22890000  0.96630000  0.63614000  1.0
  O  O397  1  0.09250000  0.95850000  0.50608000  1.0
  O  O398  1  0.08540000  0.88030000  0.59843000  1.0
  O  O399  1  0.99970000  0.76680000  0.50908000  1.0
  O  O400  1  0.85360000  0.68350000  0.53345000  1.0
  O  O401  1  0.05690000  0.77960000  0.42629000  1.0
  O  O402  1  0.05980000  0.80460000  0.74839000  1.0
  O  O403  1  0.25070000  0.80020000  0.79073000  1.0
  O  O404  1  0.13840000  0.85450000  0.67449000  1.0
  O  O405  1  0.16420000  0.71590000  0.37009000  1.0
