# generated using pymatgen
data_Mn6H48C96(N8Cl)5
_symmetry_space_group_name_H-M   'P 1'
_cell_length_a   20.31570000
_cell_length_b   20.31570000
_cell_length_c   19.91800000
_cell_angle_alpha   90.00000000
_cell_angle_beta   90.00000000
_cell_angle_gamma   90.00000000
_symmetry_Int_Tables_number   1
_chemical_formula_structural   Mn6H48C96(N8Cl)5
_chemical_formula_sum   'Mn6 H48 C96 N40 Cl5'
_cell_volume   8220.70966115
_cell_formula_units_Z   1
loop_
 _symmetry_equiv_pos_site_id
 _symmetry_equiv_pos_as_xyz
  1  'x, y, z'
loop_
 _atom_site_type_symbol
 _atom_site_label
 _atom_site_symmetry_multiplicity
 _atom_site_fract_x
 _atom_site_fract_y
 _atom_site_fract_z
 _atom_site_occupancy
  Mn  Mn0  1  0.00000000  0.50000000  0.50000000  1.0
  Mn  Mn1  1  0.50000000  0.00000000  0.50000000  1.0
  Mn  Mn2  1  0.09427000  0.09427000  0.00000000  1.0
  Mn  Mn3  1  0.90573000  0.90573000  0.00000000  1.0
  Mn  Mn4  1  0.90573000  0.09427000  0.00000000  1.0
  Mn  Mn5  1  0.09427000  0.90573000  0.00000000  1.0
  H  H6  1  0.90150000  0.32260000  0.31750000  1.0
  H  H7  1  0.90330000  0.24970000  0.22660000  1.0
  H  H8  1  0.09850000  0.67740000  0.31750000  1.0
  H  H9  1  0.09670000  0.75030000  0.22660000  1.0
  H  H10  1  0.67740000  0.90150000  0.31750000  1.0
  H  H11  1  0.75030000  0.90330000  0.22660000  1.0
  H  H12  1  0.32260000  0.09850000  0.31750000  1.0
  H  H13  1  0.24970000  0.09670000  0.22660000  1.0
  H  H14  1  0.09850000  0.32260000  0.68250000  1.0
  H  H15  1  0.09670000  0.24970000  0.77340000  1.0
  H  H16  1  0.90150000  0.67740000  0.68250000  1.0
  H  H17  1  0.90330000  0.75030000  0.77340000  1.0
  H  H18  1  0.32260000  0.90150000  0.68250000  1.0
  H  H19  1  0.24970000  0.90330000  0.77340000  1.0
  H  H20  1  0.67740000  0.09850000  0.68250000  1.0
  H  H21  1  0.75030000  0.09670000  0.77340000  1.0
  H  H22  1  0.09850000  0.67740000  0.68250000  1.0
  H  H23  1  0.09670000  0.75030000  0.77340000  1.0
  H  H24  1  0.90150000  0.32260000  0.68250000  1.0
  H  H25  1  0.90330000  0.24970000  0.77340000  1.0
  H  H26  1  0.32260000  0.09850000  0.68250000  1.0
  H  H27  1  0.24970000  0.09670000  0.77340000  1.0
  H  H28  1  0.67740000  0.90150000  0.68250000  1.0
  H  H29  1  0.75030000  0.90330000  0.77340000  1.0
  H  H30  1  0.90150000  0.67740000  0.31750000  1.0
  H  H31  1  0.90330000  0.75030000  0.22660000  1.0
  H  H32  1  0.09850000  0.32260000  0.31750000  1.0
  H  H33  1  0.09670000  0.24970000  0.22660000  1.0
  H  H34  1  0.67740000  0.09850000  0.31750000  1.0
  H  H35  1  0.75030000  0.09670000  0.22660000  1.0
  H  H36  1  0.32260000  0.90150000  0.31750000  1.0
  H  H37  1  0.24970000  0.90330000  0.22660000  1.0
  H  H38  1  0.00000000  0.25590000  0.43980000  1.0
  H  H39  1  0.00000000  0.44060000  0.25280000  1.0
  H  H40  1  0.00000000  0.74410000  0.43980000  1.0
  H  H41  1  0.00000000  0.55940000  0.25280000  1.0
  H  H42  1  0.74410000  0.00000000  0.43980000  1.0
  H  H43  1  0.55940000  0.00000000  0.25280000  1.0
  H  H44  1  0.25590000  0.00000000  0.43980000  1.0
  H  H45  1  0.44060000  0.00000000  0.25280000  1.0
  H  H46  1  0.00000000  0.25590000  0.56020000  1.0
  H  H47  1  0.00000000  0.44060000  0.74720000  1.0
  H  H48  1  0.00000000  0.74410000  0.56020000  1.0
  H  H49  1  0.00000000  0.55940000  0.74720000  1.0
  H  H50  1  0.25590000  0.00000000  0.56020000  1.0
  H  H51  1  0.44060000  0.00000000  0.74720000  1.0
  H  H52  1  0.74410000  0.00000000  0.56020000  1.0
  H  H53  1  0.55940000  0.00000000  0.74720000  1.0
  C  C54  1  0.94120000  0.30870000  0.29920000  1.0
  C  C55  1  0.94290000  0.26470000  0.24450000  1.0
  C  C56  1  0.05880000  0.69130000  0.29920000  1.0
  C  C57  1  0.05710000  0.73530000  0.24450000  1.0
  C  C58  1  0.69130000  0.94120000  0.29920000  1.0
  C  C59  1  0.73530000  0.94290000  0.24450000  1.0
  C  C60  1  0.30870000  0.05880000  0.29920000  1.0
  C  C61  1  0.26470000  0.05710000  0.24450000  1.0
  C  C62  1  0.05880000  0.30870000  0.70080000  1.0
  C  C63  1  0.05710000  0.26470000  0.75550000  1.0
  C  C64  1  0.94120000  0.69130000  0.70080000  1.0
  C  C65  1  0.94290000  0.73530000  0.75550000  1.0
  C  C66  1  0.30870000  0.94120000  0.70080000  1.0
  C  C67  1  0.26470000  0.94290000  0.75550000  1.0
  C  C68  1  0.69130000  0.05880000  0.70080000  1.0
  C  C69  1  0.73530000  0.05710000  0.75550000  1.0
  C  C70  1  0.05880000  0.69130000  0.70080000  1.0
  C  C71  1  0.05710000  0.73530000  0.75550000  1.0
  C  C72  1  0.94120000  0.30870000  0.70080000  1.0
  C  C73  1  0.94290000  0.26470000  0.75550000  1.0
  C  C74  1  0.30870000  0.05880000  0.70080000  1.0
  C  C75  1  0.26470000  0.05710000  0.75550000  1.0
  C  C76  1  0.69130000  0.94120000  0.70080000  1.0
  C  C77  1  0.73530000  0.94290000  0.75550000  1.0
  C  C78  1  0.94120000  0.69130000  0.29920000  1.0
  C  C79  1  0.94290000  0.73530000  0.24450000  1.0
  C  C80  1  0.05880000  0.30870000  0.29920000  1.0
  C  C81  1  0.05710000  0.26470000  0.24450000  1.0
  C  C82  1  0.69130000  0.05880000  0.29920000  1.0
  C  C83  1  0.73530000  0.05710000  0.24450000  1.0
  C  C84  1  0.30870000  0.94120000  0.29920000  1.0
  C  C85  1  0.26470000  0.94290000  0.24450000  1.0
  C  C86  1  0.00000000  0.36020000  0.44470000  1.0
  C  C87  1  0.00000000  0.37970000  0.37950000  1.0
  C  C88  1  0.00000000  0.44740000  0.35820000  1.0
  C  C89  1  0.00000000  0.29300000  0.46720000  1.0
  C  C90  1  0.00000000  0.46780000  0.29040000  1.0
  C  C91  1  0.00000000  0.33040000  0.32470000  1.0
  C  C92  1  0.00000000  0.24340000  0.21710000  1.0
  C  C93  1  0.00000000  0.20010000  0.15760000  1.0
  C  C94  1  0.00000000  0.63980000  0.44470000  1.0
  C  C95  1  0.00000000  0.62030000  0.37950000  1.0
  C  C96  1  0.00000000  0.55260000  0.35820000  1.0
  C  C97  1  0.00000000  0.70700000  0.46720000  1.0
  C  C98  1  0.00000000  0.53220000  0.29040000  1.0
  C  C99  1  0.00000000  0.66960000  0.32470000  1.0
  C  C100  1  0.00000000  0.75660000  0.21710000  1.0
  C  C101  1  0.00000000  0.79990000  0.15760000  1.0
  C  C102  1  0.63980000  0.00000000  0.44470000  1.0
  C  C103  1  0.62030000  0.00000000  0.37950000  1.0
  C  C104  1  0.55260000  0.00000000  0.35820000  1.0
  C  C105  1  0.70700000  0.00000000  0.46720000  1.0
  C  C106  1  0.53220000  0.00000000  0.29040000  1.0
  C  C107  1  0.66960000  0.00000000  0.32470000  1.0
  C  C108  1  0.75660000  0.00000000  0.21710000  1.0
  C  C109  1  0.79990000  0.00000000  0.15760000  1.0
  C  C110  1  0.36020000  0.00000000  0.44470000  1.0
  C  C111  1  0.37970000  0.00000000  0.37950000  1.0
  C  C112  1  0.44740000  0.00000000  0.35820000  1.0
  C  C113  1  0.29300000  0.00000000  0.46720000  1.0
  C  C114  1  0.46780000  0.00000000  0.29040000  1.0
  C  C115  1  0.33040000  0.00000000  0.32470000  1.0
  C  C116  1  0.24340000  0.00000000  0.21710000  1.0
  C  C117  1  0.20010000  0.00000000  0.15760000  1.0
  C  C118  1  0.00000000  0.36020000  0.55530000  1.0
  C  C119  1  0.00000000  0.37970000  0.62050000  1.0
  C  C120  1  0.00000000  0.44740000  0.64180000  1.0
  C  C121  1  0.00000000  0.29300000  0.53280000  1.0
  C  C122  1  0.00000000  0.46780000  0.70960000  1.0
  C  C123  1  0.00000000  0.33040000  0.67530000  1.0
  C  C124  1  0.00000000  0.24340000  0.78290000  1.0
  C  C125  1  0.00000000  0.20010000  0.84240000  1.0
  C  C126  1  0.00000000  0.63980000  0.55530000  1.0
  C  C127  1  0.00000000  0.62030000  0.62050000  1.0
  C  C128  1  0.00000000  0.55260000  0.64180000  1.0
  C  C129  1  0.00000000  0.70700000  0.53280000  1.0
  C  C130  1  0.00000000  0.53220000  0.70960000  1.0
  C  C131  1  0.00000000  0.66960000  0.67530000  1.0
  C  C132  1  0.00000000  0.75660000  0.78290000  1.0
  C  C133  1  0.00000000  0.79990000  0.84240000  1.0
  C  C134  1  0.36020000  0.00000000  0.55530000  1.0
  C  C135  1  0.37970000  0.00000000  0.62050000  1.0
  C  C136  1  0.44740000  0.00000000  0.64180000  1.0
  C  C137  1  0.29300000  0.00000000  0.53280000  1.0
  C  C138  1  0.46780000  0.00000000  0.70960000  1.0
  C  C139  1  0.33040000  0.00000000  0.67530000  1.0
  C  C140  1  0.24340000  0.00000000  0.78290000  1.0
  C  C141  1  0.20010000  0.00000000  0.84240000  1.0
  C  C142  1  0.63980000  0.00000000  0.55530000  1.0
  C  C143  1  0.62030000  0.00000000  0.62050000  1.0
  C  C144  1  0.55260000  0.00000000  0.64180000  1.0
  C  C145  1  0.70700000  0.00000000  0.53280000  1.0
  C  C146  1  0.53220000  0.00000000  0.70960000  1.0
  C  C147  1  0.66960000  0.00000000  0.67530000  1.0
  C  C148  1  0.75660000  0.00000000  0.78290000  1.0
  C  C149  1  0.79990000  0.00000000  0.84240000  1.0
  N  N150  1  0.05469000  0.17932000  0.12765000  1.0
  N  N151  1  0.03192000  0.14304000  0.07726000  1.0
  N  N152  1  0.94531000  0.82068000  0.12765000  1.0
  N  N153  1  0.96808000  0.85696000  0.07726000  1.0
  N  N154  1  0.82068000  0.05469000  0.12765000  1.0
  N  N155  1  0.85696000  0.03192000  0.07726000  1.0
  N  N156  1  0.17932000  0.94531000  0.12765000  1.0
  N  N157  1  0.14304000  0.96808000  0.07726000  1.0
  N  N158  1  0.94531000  0.17932000  0.87235000  1.0
  N  N159  1  0.96808000  0.14304000  0.92274000  1.0
  N  N160  1  0.05469000  0.82068000  0.87235000  1.0
  N  N161  1  0.03192000  0.85696000  0.92274000  1.0
  N  N162  1  0.17932000  0.05469000  0.87235000  1.0
  N  N163  1  0.14304000  0.03192000  0.92274000  1.0
  N  N164  1  0.82068000  0.94531000  0.87235000  1.0
  N  N165  1  0.85696000  0.96808000  0.92274000  1.0
  N  N166  1  0.94531000  0.82068000  0.87235000  1.0
  N  N167  1  0.96808000  0.85696000  0.92274000  1.0
  N  N168  1  0.05469000  0.17932000  0.87235000  1.0
  N  N169  1  0.03192000  0.14304000  0.92274000  1.0
  N  N170  1  0.17932000  0.94531000  0.87235000  1.0
  N  N171  1  0.14304000  0.96808000  0.92274000  1.0
  N  N172  1  0.82068000  0.05469000  0.87235000  1.0
  N  N173  1  0.85696000  0.03192000  0.92274000  1.0
  N  N174  1  0.05469000  0.82068000  0.12765000  1.0
  N  N175  1  0.03192000  0.85696000  0.07726000  1.0
  N  N176  1  0.94531000  0.17932000  0.12765000  1.0
  N  N177  1  0.96808000  0.14304000  0.07726000  1.0
  N  N178  1  0.82068000  0.94531000  0.12765000  1.0
  N  N179  1  0.85696000  0.96808000  0.07726000  1.0
  N  N180  1  0.17932000  0.05469000  0.12765000  1.0
  N  N181  1  0.14304000  0.03192000  0.07726000  1.0
  N  N182  1  0.00000000  0.40160000  0.50000000  1.0
  N  N183  1  0.00000000  0.59840000  0.50000000  1.0
  N  N184  1  0.59840000  0.00000000  0.50000000  1.0
  N  N185  1  0.40160000  0.00000000  0.50000000  1.0
  N  N186  1  0.00000000  0.50000000  0.40020000  1.0
  N  N187  1  0.50000000  0.00000000  0.40020000  1.0
  N  N188  1  0.00000000  0.50000000  0.59980000  1.0
  N  N189  1  0.50000000  0.00000000  0.59980000  1.0
  Cl  Cl190  1  0.00000000  0.00000000  0.00000000  1.0
  Cl  Cl191  1  0.12580000  0.50000000  0.50000000  1.0
  Cl  Cl192  1  0.87420000  0.50000000  0.50000000  1.0
  Cl  Cl193  1  0.50000000  0.12580000  0.50000000  1.0
  Cl  Cl194  1  0.50000000  0.87420000  0.50000000  1.0
