# generated using pymatgen
data_CuMo4H12C14(NO2)4
_symmetry_space_group_name_H-M   'P 1'
_cell_length_a   9.61800000
_cell_length_b   13.99600000
_cell_length_c   19.84200000
_cell_angle_alpha   90.00000000
_cell_angle_beta   99.18200000
_cell_angle_gamma   90.00000000
_symmetry_Int_Tables_number   1
_chemical_formula_structural   CuMo4H12C14(NO2)4
_chemical_formula_sum   'Cu4 Mo16 H48 C56 N16 O32'
_cell_volume   2636.77659509
_cell_formula_units_Z   4
loop_
 _symmetry_equiv_pos_site_id
 _symmetry_equiv_pos_as_xyz
  1  'x, y, z'
loop_
 _atom_site_type_symbol
 _atom_site_label
 _atom_site_symmetry_multiplicity
 _atom_site_fract_x
 _atom_site_fract_y
 _atom_site_fract_z
 _atom_site_occupancy
  Cu  Cu0  1  0.76938000  0.09205000  0.71875000  1.0
  Cu  Cu1  1  0.23062000  0.59205000  0.78125000  1.0
  Cu  Cu2  1  0.23062000  0.90795000  0.28125000  1.0
  Cu  Cu3  1  0.76938000  0.40795000  0.21875000  1.0
  Mo  Mo4  1  0.29947000  0.09502000  0.98384000  1.0
  Mo  Mo5  1  0.92354000  0.10164000  0.03582000  1.0
  Mo  Mo6  1  0.00880000  0.11861000  0.87888000  1.0
  Mo  Mo7  1  0.63966000  0.11074000  0.92142000  1.0
  Mo  Mo8  1  0.70053000  0.59502000  0.51616000  1.0
  Mo  Mo9  1  0.07646000  0.60164000  0.46418000  1.0
  Mo  Mo10  1  0.99120000  0.61861000  0.62112000  1.0
  Mo  Mo11  1  0.36034000  0.61074000  0.57858000  1.0
  Mo  Mo12  1  0.70053000  0.90498000  0.01616000  1.0
  Mo  Mo13  1  0.07646000  0.89836000  0.96418000  1.0
  Mo  Mo14  1  0.99120000  0.88139000  0.12112000  1.0
  Mo  Mo15  1  0.36034000  0.88926000  0.07858000  1.0
  Mo  Mo16  1  0.29947000  0.40498000  0.48384000  1.0
  Mo  Mo17  1  0.92354000  0.39836000  0.53582000  1.0
  Mo  Mo18  1  0.00880000  0.38139000  0.37888000  1.0
  Mo  Mo19  1  0.63966000  0.38926000  0.42142000  1.0
  H  H20  1  0.06640000  0.72250000  0.24720000  1.0
  H  H21  1  0.10360000  0.93620000  0.76290000  1.0
  H  H22  1  0.32370000  0.99170000  0.80960000  1.0
  H  H23  1  0.50690000  0.87940000  0.83980000  1.0
  H  H24  1  0.53210000  0.03300000  0.33750000  1.0
  H  H25  1  0.75550000  0.56010000  0.85650000  1.0
  H  H26  1  0.70980000  0.80450000  0.87870000  1.0
  H  H27  1  0.82360000  0.73190000  0.86180000  1.0
  H  H28  1  0.67660000  0.69340000  0.71480000  1.0
  H  H29  1  0.68600000  0.77800000  0.61290000  1.0
  H  H30  1  0.74220000  0.93770000  0.61930000  1.0
  H  H31  1  0.77530000  0.93480000  0.81680000  1.0
  H  H32  1  0.93360000  0.22250000  0.25280000  1.0
  H  H33  1  0.89640000  0.43620000  0.73710000  1.0
  H  H34  1  0.67630000  0.49170000  0.69040000  1.0
  H  H35  1  0.49310000  0.37940000  0.66020000  1.0
  H  H36  1  0.46790000  0.53300000  0.16250000  1.0
  H  H37  1  0.24450000  0.06010000  0.64350000  1.0
  H  H38  1  0.29020000  0.30450000  0.62130000  1.0
  H  H39  1  0.17640000  0.23190000  0.63820000  1.0
  H  H40  1  0.32340000  0.19340000  0.78520000  1.0
  H  H41  1  0.31400000  0.27800000  0.88710000  1.0
  H  H42  1  0.25780000  0.43770000  0.88070000  1.0
  H  H43  1  0.22470000  0.43480000  0.68320000  1.0
  H  H44  1  0.93360000  0.27750000  0.75280000  1.0
  H  H45  1  0.89640000  0.06380000  0.23710000  1.0
  H  H46  1  0.67630000  0.00830000  0.19040000  1.0
  H  H47  1  0.49310000  0.12060000  0.16020000  1.0
  H  H48  1  0.46790000  0.96700000  0.66250000  1.0
  H  H49  1  0.24450000  0.43990000  0.14350000  1.0
  H  H50  1  0.29020000  0.19550000  0.12130000  1.0
  H  H51  1  0.17640000  0.26810000  0.13820000  1.0
  H  H52  1  0.32340000  0.30660000  0.28520000  1.0
  H  H53  1  0.31400000  0.22200000  0.38710000  1.0
  H  H54  1  0.25780000  0.06230000  0.38070000  1.0
  H  H55  1  0.22470000  0.06520000  0.18320000  1.0
  H  H56  1  0.06640000  0.77750000  0.74720000  1.0
  H  H57  1  0.10360000  0.56380000  0.26290000  1.0
  H  H58  1  0.32370000  0.50830000  0.30960000  1.0
  H  H59  1  0.50690000  0.62060000  0.33980000  1.0
  H  H60  1  0.53210000  0.46700000  0.83750000  1.0
  H  H61  1  0.75550000  0.93990000  0.35650000  1.0
  H  H62  1  0.70980000  0.69550000  0.37870000  1.0
  H  H63  1  0.82360000  0.76810000  0.36180000  1.0
  H  H64  1  0.67660000  0.80660000  0.21480000  1.0
  H  H65  1  0.68600000  0.72200000  0.11290000  1.0
  H  H66  1  0.74220000  0.56230000  0.11930000  1.0
  H  H67  1  0.77530000  0.56520000  0.31680000  1.0
  C  C68  1  0.15570000  0.70150000  0.26650000  1.0
  C  C69  1  0.17740000  0.60650000  0.27540000  1.0
  C  C70  1  0.30730000  0.92670000  0.80290000  1.0
  C  C71  1  0.41700000  0.64080000  0.32090000  1.0
  C  C72  1  0.38870000  0.73690000  0.31020000  1.0
  C  C73  1  0.48450000  0.68450000  0.82630000  1.0
  C  C74  1  0.54020000  0.96680000  0.33630000  1.0
  C  C75  1  0.66470000  0.58480000  0.84710000  1.0
  C  C76  1  0.73060000  0.75760000  0.84570000  1.0
  C  C77  1  0.73040000  0.80690000  0.77610000  1.0
  C  C78  1  0.69980000  0.75800000  0.71560000  1.0
  C  C79  1  0.70480000  0.80840000  0.65510000  1.0
  C  C80  1  0.73810000  0.90420000  0.65940000  1.0
  C  C81  1  0.75900000  0.90240000  0.77540000  1.0
  C  C82  1  0.84430000  0.20150000  0.23350000  1.0
  C  C83  1  0.82260000  0.10650000  0.22460000  1.0
  C  C84  1  0.69270000  0.42670000  0.69710000  1.0
  C  C85  1  0.58300000  0.14080000  0.17910000  1.0
  C  C86  1  0.61130000  0.23690000  0.18980000  1.0
  C  C87  1  0.51550000  0.18450000  0.67370000  1.0
  C  C88  1  0.45980000  0.46680000  0.16370000  1.0
  C  C89  1  0.33530000  0.08480000  0.65290000  1.0
  C  C90  1  0.26940000  0.25760000  0.65430000  1.0
  C  C91  1  0.26960000  0.30690000  0.72390000  1.0
  C  C92  1  0.30020000  0.25800000  0.78440000  1.0
  C  C93  1  0.29520000  0.30840000  0.84490000  1.0
  C  C94  1  0.26190000  0.40420000  0.84060000  1.0
  C  C95  1  0.24100000  0.40240000  0.72460000  1.0
  C  C96  1  0.84430000  0.29850000  0.73350000  1.0
  C  C97  1  0.82260000  0.39350000  0.72460000  1.0
  C  C98  1  0.69270000  0.07330000  0.19710000  1.0
  C  C99  1  0.58300000  0.35920000  0.67910000  1.0
  C  C100  1  0.61130000  0.26310000  0.68980000  1.0
  C  C101  1  0.51550000  0.31550000  0.17370000  1.0
  C  C102  1  0.45980000  0.03320000  0.66370000  1.0
  C  C103  1  0.33530000  0.41520000  0.15290000  1.0
  C  C104  1  0.26940000  0.24240000  0.15430000  1.0
  C  C105  1  0.26960000  0.19310000  0.22390000  1.0
  C  C106  1  0.30020000  0.24200000  0.28440000  1.0
  C  C107  1  0.29520000  0.19160000  0.34490000  1.0
  C  C108  1  0.26190000  0.09580000  0.34060000  1.0
  C  C109  1  0.24100000  0.09760000  0.22460000  1.0
  C  C110  1  0.15570000  0.79850000  0.76650000  1.0
  C  C111  1  0.17740000  0.89350000  0.77540000  1.0
  C  C112  1  0.30730000  0.57330000  0.30290000  1.0
  C  C113  1  0.41700000  0.85920000  0.82090000  1.0
  C  C114  1  0.38870000  0.76310000  0.81020000  1.0
  C  C115  1  0.48450000  0.81550000  0.32630000  1.0
  C  C116  1  0.54020000  0.53320000  0.83630000  1.0
  C  C117  1  0.66470000  0.91520000  0.34710000  1.0
  C  C118  1  0.73060000  0.74240000  0.34570000  1.0
  C  C119  1  0.73040000  0.69310000  0.27610000  1.0
  C  C120  1  0.69980000  0.74200000  0.21560000  1.0
  C  C121  1  0.70480000  0.69160000  0.15510000  1.0
  C  C122  1  0.73810000  0.59580000  0.15940000  1.0
  C  C123  1  0.75900000  0.59760000  0.27540000  1.0
  N  N124  1  0.25630000  0.76630000  0.28410000  1.0
  N  N125  1  0.43100000  0.90310000  0.32320000  1.0
  N  N126  1  0.62740000  0.68070000  0.84130000  1.0
  N  N127  1  0.76480000  0.95100000  0.71880000  1.0
  N  N128  1  0.74370000  0.26630000  0.21590000  1.0
  N  N129  1  0.56900000  0.40310000  0.17680000  1.0
  N  N130  1  0.37260000  0.18070000  0.65870000  1.0
  N  N131  1  0.23520000  0.45100000  0.78120000  1.0
  N  N132  1  0.74370000  0.23370000  0.71590000  1.0
  N  N133  1  0.56900000  0.09690000  0.67680000  1.0
  N  N134  1  0.37260000  0.31930000  0.15870000  1.0
  N  N135  1  0.23520000  0.04900000  0.28120000  1.0
  N  N136  1  0.25630000  0.73370000  0.78410000  1.0
  N  N137  1  0.43100000  0.59690000  0.82320000  1.0
  N  N138  1  0.62740000  0.81930000  0.34130000  1.0
  N  N139  1  0.76480000  0.54900000  0.21880000  1.0
  O  O140  1  0.19920000  0.09610000  0.88450000  1.0
  O  O141  1  0.08380000  0.07710000  0.98570000  1.0
  O  O142  1  0.93160000  0.09760000  0.79450000  1.0
  O  O143  1  0.84620000  0.10030000  0.92810000  1.0
  O  O144  1  0.00030000  0.95090000  0.88750000  1.0
  O  O145  1  0.26520000  0.92870000  0.97000000  1.0
  O  O146  1  0.33830000  0.04920000  0.06760000  1.0
  O  O147  1  0.46330000  0.07590000  0.94900000  1.0
  O  O148  1  0.80080000  0.59610000  0.61550000  1.0
  O  O149  1  0.91620000  0.57710000  0.51430000  1.0
  O  O150  1  0.06840000  0.59760000  0.70550000  1.0
  O  O151  1  0.15380000  0.60030000  0.57190000  1.0
  O  O152  1  0.99970000  0.45090000  0.61250000  1.0
  O  O153  1  0.73480000  0.42870000  0.53000000  1.0
  O  O154  1  0.66170000  0.54920000  0.43240000  1.0
  O  O155  1  0.53670000  0.57590000  0.55100000  1.0
  O  O156  1  0.80080000  0.90390000  0.11550000  1.0
  O  O157  1  0.91620000  0.92290000  0.01430000  1.0
  O  O158  1  0.06840000  0.90240000  0.20550000  1.0
  O  O159  1  0.15380000  0.89970000  0.07190000  1.0
  O  O160  1  0.99970000  0.04910000  0.11250000  1.0
  O  O161  1  0.73480000  0.07130000  0.03000000  1.0
  O  O162  1  0.66170000  0.95080000  0.93240000  1.0
  O  O163  1  0.53670000  0.92410000  0.05100000  1.0
  O  O164  1  0.19920000  0.40390000  0.38450000  1.0
  O  O165  1  0.08380000  0.42290000  0.48570000  1.0
  O  O166  1  0.93160000  0.40240000  0.29450000  1.0
  O  O167  1  0.84620000  0.39970000  0.42810000  1.0
  O  O168  1  0.00030000  0.54910000  0.38750000  1.0
  O  O169  1  0.26520000  0.57130000  0.47000000  1.0
  O  O170  1  0.33830000  0.45080000  0.56760000  1.0
  O  O171  1  0.46330000  0.42410000  0.44900000  1.0
