# generated using pymatgen
data_CoMo6H20C24(N4O3)3
_symmetry_space_group_name_H-M   'P 1'
_cell_length_a   9.51930000
_cell_length_b   10.95340000
_cell_length_c   11.49350000
_cell_angle_alpha   91.78600000
_cell_angle_beta   113.80000000
_cell_angle_gamma   105.46900000
_symmetry_Int_Tables_number   1
_chemical_formula_structural   CoMo6H20C24(N4O3)3
_chemical_formula_sum   'Co1 Mo6 H20 C24 N12 O9'
_cell_volume   1043.60510647
_cell_formula_units_Z   1
loop_
 _symmetry_equiv_pos_site_id
 _symmetry_equiv_pos_as_xyz
  1  'x, y, z'
loop_
 _atom_site_type_symbol
 _atom_site_label
 _atom_site_symmetry_multiplicity
 _atom_site_fract_x
 _atom_site_fract_y
 _atom_site_fract_z
 _atom_site_occupancy
  Co  Co0  1  0.00000000  0.50000000  0.50000000  1.0
  Mo  Mo1  1  0.41889000  0.62111000  0.74983000  1.0
  Mo  Mo2  1  0.51151000  0.64734000  0.06347000  1.0
  Mo  Mo3  1  0.52394000  0.92865000  0.86002000  1.0
  Mo  Mo4  1  0.58111000  0.37889000  0.25017000  1.0
  Mo  Mo5  1  0.48849000  0.35266000  0.93653000  1.0
  Mo  Mo6  1  0.47606000  0.07135000  0.13998000  1.0
  H  H7  1  0.88980000  0.57060000  0.22200000  1.0
  H  H8  1  0.25060000  0.76320000  0.54070000  1.0
  H  H9  1  0.33140000  0.91960000  0.43210000  1.0
  H  H10  1  0.18710000  0.90230000  0.21170000  1.0
  H  H11  1  0.94970000  0.58240000  0.73500000  1.0
  H  H12  1  0.79860000  0.68120000  0.39480000  1.0
  H  H13  1  0.67110000  0.80810000  0.45010000  1.0
  H  H14  1  0.68060000  0.82060000  0.65570000  1.0
  H  H15  1  0.13060000  0.76820000  0.89620000  1.0
  H  H16  1  0.19870000  0.77850000  0.03900000  1.0
  H  H17  1  0.11020000  0.42940000  0.77800000  1.0
  H  H18  1  0.74940000  0.23680000  0.45930000  1.0
  H  H19  1  0.66860000  0.08040000  0.56790000  1.0
  H  H20  1  0.81290000  0.09770000  0.78830000  1.0
  H  H21  1  0.05030000  0.41760000  0.26500000  1.0
  H  H22  1  0.20140000  0.31880000  0.60520000  1.0
  H  H23  1  0.32890000  0.19190000  0.54990000  1.0
  H  H24  1  0.31940000  0.17940000  0.34430000  1.0
  H  H25  1  0.86940000  0.23180000  0.10380000  1.0
  H  H26  1  0.80130000  0.22150000  0.96100000  1.0
  C  C27  1  0.91150000  0.71530000  0.05700000  1.0
  C  C28  1  0.02010000  0.73320000  0.19440000  1.0
  C  C29  1  0.98010000  0.64170000  0.26480000  1.0
  C  C30  1  0.19230000  0.75420000  0.45200000  1.0
  C  C31  1  0.24090000  0.84930000  0.38710000  1.0
  C  C32  1  0.15560000  0.83990000  0.25680000  1.0
  C  C33  1  0.82360000  0.70080000  0.84770000  1.0
  C  C34  1  0.81770000  0.70180000  0.71740000  1.0
  C  C35  1  0.89260000  0.62830000  0.67710000  1.0
  C  C36  1  0.80420000  0.68650000  0.47760000  1.0
  C  C37  1  0.72650000  0.76280000  0.50980000  1.0
  C  C38  1  0.73240000  0.77060000  0.63160000  1.0
  C  C39  1  0.08850000  0.28470000  0.94300000  1.0
  C  C40  1  0.97990000  0.26680000  0.80560000  1.0
  C  C41  1  0.01990000  0.35830000  0.73520000  1.0
  C  C42  1  0.80770000  0.24580000  0.54800000  1.0
  C  C43  1  0.75910000  0.15070000  0.61290000  1.0
  C  C44  1  0.84440000  0.16010000  0.74320000  1.0
  C  C45  1  0.17640000  0.29920000  0.15230000  1.0
  C  C46  1  0.18230000  0.29820000  0.28260000  1.0
  C  C47  1  0.10740000  0.37170000  0.32290000  1.0
  C  C48  1  0.19580000  0.31350000  0.52240000  1.0
  C  C49  1  0.27350000  0.23720000  0.49020000  1.0
  C  C50  1  0.26760000  0.22940000  0.36840000  1.0
  N  N51  1  0.75440000  0.68210000  0.00700000  1.0
  N  N52  1  0.69950000  0.67400000  0.87550000  1.0
  N  N53  1  0.95980000  0.72750000  0.95860000  1.0
  N  N54  1  0.11680000  0.76260000  0.96550000  1.0
  N  N55  1  0.06520000  0.65030000  0.39200000  1.0
  N  N56  1  0.88650000  0.62050000  0.55890000  1.0
  N  N57  1  0.24560000  0.31790000  0.99300000  1.0
  N  N58  1  0.30050000  0.32600000  0.12450000  1.0
  N  N59  1  0.04020000  0.27250000  0.04140000  1.0
  N  N60  1  0.88320000  0.23740000  0.03450000  1.0
  N  N61  1  0.93480000  0.34970000  0.60800000  1.0
  N  N62  1  0.11350000  0.37950000  0.44110000  1.0
  O  O63  1  0.42980000  0.51030000  0.88550000  1.0
  O  O64  1  0.47640000  0.78970000  0.72090000  1.0
  O  O65  1  0.20810000  0.58000000  0.66940000  1.0
  O  O66  1  0.46680000  0.74410000  0.92830000  1.0
  O  O67  1  0.57020000  0.48970000  0.11450000  1.0
  O  O68  1  0.52360000  0.21030000  0.27910000  1.0
  O  O69  1  0.79190000  0.42000000  0.33060000  1.0
  O  O70  1  0.53320000  0.25590000  0.07170000  1.0
  O  O71  1  0.50000000  0.00000000  0.00000000  1.0
