# generated using pymatgen
data_Zn2H6(C2N3)3
_symmetry_space_group_name_H-M   'P 1'
_cell_length_a   7.66300000
_cell_length_b   10.10400000
_cell_length_c   17.42600000
_cell_angle_alpha   90.00000000
_cell_angle_beta   90.00000000
_cell_angle_gamma   90.00000000
_symmetry_Int_Tables_number   1
_chemical_formula_structural   Zn2H6(C2N3)3
_chemical_formula_sum   'Zn8 H24 C24 N36'
_cell_volume   1349.24206555
_cell_formula_units_Z   4
loop_
 _symmetry_equiv_pos_site_id
 _symmetry_equiv_pos_as_xyz
  1  'x, y, z'
loop_
 _atom_site_type_symbol
 _atom_site_label
 _atom_site_symmetry_multiplicity
 _atom_site_fract_x
 _atom_site_fract_y
 _atom_site_fract_z
 _atom_site_occupancy
  Zn  Zn0  1  0.15692000  0.75000000  0.91555000  1.0
  Zn  Zn1  1  0.00750000  0.75000000  0.26119000  1.0
  Zn  Zn2  1  0.34308000  0.25000000  0.41555000  1.0
  Zn  Zn3  1  0.49250000  0.25000000  0.76119000  1.0
  Zn  Zn4  1  0.84308000  0.25000000  0.08445000  1.0
  Zn  Zn5  1  0.99250000  0.25000000  0.73881000  1.0
  Zn  Zn6  1  0.65692000  0.75000000  0.58445000  1.0
  Zn  Zn7  1  0.50750000  0.75000000  0.23881000  1.0
  H  H8  1  0.97250000  0.53640000  0.82190000  1.0
  H  H9  1  0.46790000  0.53550000  0.86400000  1.0
  H  H10  1  0.52750000  0.46360000  0.32190000  1.0
  H  H11  1  0.03210000  0.46450000  0.36400000  1.0
  H  H12  1  0.02750000  0.03640000  0.17810000  1.0
  H  H13  1  0.53210000  0.03550000  0.13600000  1.0
  H  H14  1  0.47250000  0.96360000  0.67810000  1.0
  H  H15  1  0.96790000  0.96450000  0.63600000  1.0
  H  H16  1  0.02750000  0.46360000  0.17810000  1.0
  H  H17  1  0.53210000  0.46450000  0.13600000  1.0
  H  H18  1  0.47250000  0.53640000  0.67810000  1.0
  H  H19  1  0.96790000  0.53550000  0.63600000  1.0
  H  H20  1  0.97250000  0.96360000  0.82190000  1.0
  H  H21  1  0.46790000  0.96450000  0.86400000  1.0
  H  H22  1  0.52750000  0.03640000  0.32190000  1.0
  H  H23  1  0.03210000  0.03550000  0.36400000  1.0
  H  H24  1  0.47290000  0.75000000  0.04390000  1.0
  H  H25  1  0.97340000  0.75000000  0.07420000  1.0
  H  H26  1  0.02710000  0.25000000  0.54390000  1.0
  H  H27  1  0.52660000  0.25000000  0.57420000  1.0
  H  H28  1  0.52710000  0.25000000  0.95610000  1.0
  H  H29  1  0.02660000  0.25000000  0.92580000  1.0
  H  H30  1  0.97290000  0.75000000  0.45610000  1.0
  H  H31  1  0.47340000  0.75000000  0.42580000  1.0
  C  C32  1  0.08940000  0.51170000  0.82387000  1.0
  C  C33  1  0.35760000  0.51110000  0.84677000  1.0
  C  C34  1  0.41060000  0.48830000  0.32387000  1.0
  C  C35  1  0.14240000  0.48890000  0.34677000  1.0
  C  C36  1  0.91060000  0.01170000  0.17613000  1.0
  C  C37  1  0.64240000  0.01110000  0.15323000  1.0
  C  C38  1  0.58940000  0.98830000  0.67613000  1.0
  C  C39  1  0.85760000  0.98890000  0.65323000  1.0
  C  C40  1  0.91060000  0.48830000  0.17613000  1.0
  C  C41  1  0.64240000  0.48890000  0.15323000  1.0
  C  C42  1  0.58940000  0.51170000  0.67613000  1.0
  C  C43  1  0.85760000  0.51110000  0.65323000  1.0
  C  C44  1  0.08940000  0.98830000  0.82387000  1.0
  C  C45  1  0.35760000  0.98890000  0.84677000  1.0
  C  C46  1  0.41060000  0.01170000  0.32387000  1.0
  C  C47  1  0.14240000  0.01110000  0.34677000  1.0
  C  C48  1  0.36330000  0.75000000  0.06680000  1.0
  C  C49  1  0.09310000  0.75000000  0.08320000  1.0
  C  C50  1  0.13670000  0.25000000  0.56680000  1.0
  C  C51  1  0.40690000  0.25000000  0.58320000  1.0
  C  C52  1  0.63670000  0.25000000  0.93320000  1.0
  C  C53  1  0.90690000  0.25000000  0.91680000  1.0
  C  C54  1  0.86330000  0.75000000  0.43320000  1.0
  C  C55  1  0.59310000  0.75000000  0.41680000  1.0
  N  N56  1  0.15000000  0.40290000  0.79243000  1.0
  N  N57  1  0.32580000  0.40170000  0.80764000  1.0
  N  N58  1  0.21230000  0.58360000  0.85905000  1.0
  N  N59  1  0.35000000  0.59710000  0.29243000  1.0
  N  N60  1  0.17420000  0.59830000  0.30764000  1.0
  N  N61  1  0.28770000  0.41640000  0.35905000  1.0
  N  N62  1  0.85000000  0.90290000  0.20757000  1.0
  N  N63  1  0.67420000  0.90170000  0.19236000  1.0
  N  N64  1  0.78770000  0.08360000  0.14095000  1.0
  N  N65  1  0.65000000  0.09710000  0.70757000  1.0
  N  N66  1  0.82580000  0.09830000  0.69236000  1.0
  N  N67  1  0.71230000  0.91640000  0.64095000  1.0
  N  N68  1  0.85000000  0.59710000  0.20757000  1.0
  N  N69  1  0.67420000  0.59830000  0.19236000  1.0
  N  N70  1  0.78770000  0.41640000  0.14095000  1.0
  N  N71  1  0.65000000  0.40290000  0.70757000  1.0
  N  N72  1  0.82580000  0.40170000  0.69236000  1.0
  N  N73  1  0.71230000  0.58360000  0.64095000  1.0
  N  N74  1  0.15000000  0.09710000  0.79243000  1.0
  N  N75  1  0.32580000  0.09830000  0.80764000  1.0
  N  N76  1  0.21230000  0.91640000  0.85905000  1.0
  N  N77  1  0.35000000  0.90290000  0.29243000  1.0
  N  N78  1  0.17420000  0.90170000  0.30764000  1.0
  N  N79  1  0.28770000  0.08360000  0.35905000  1.0
  N  N80  1  0.33900000  0.75000000  0.14161000  1.0
  N  N81  1  0.16210000  0.75000000  0.15229000  1.0
  N  N82  1  0.21300000  0.75000000  0.02704000  1.0
  N  N83  1  0.16100000  0.25000000  0.64161000  1.0
  N  N84  1  0.33790000  0.25000000  0.65229000  1.0
  N  N85  1  0.28700000  0.25000000  0.52704000  1.0
  N  N86  1  0.66100000  0.25000000  0.85839000  1.0
  N  N87  1  0.83790000  0.25000000  0.84771000  1.0
  N  N88  1  0.78700000  0.25000000  0.97296000  1.0
  N  N89  1  0.83900000  0.75000000  0.35839000  1.0
  N  N90  1  0.66210000  0.75000000  0.34771000  1.0
  N  N91  1  0.71300000  0.75000000  0.47296000  1.0
