# generated using pymatgen
data_ZnH12C18(NO2)2
_symmetry_space_group_name_H-M   'P 1'
_cell_length_a   27.74710000
_cell_length_b   27.74710000
_cell_length_c   3.63230000
_cell_angle_alpha   90.00000000
_cell_angle_beta   90.00000000
_cell_angle_gamma   90.00000000
_symmetry_Int_Tables_number   1
_chemical_formula_structural   ZnH12C18(NO2)2
_chemical_formula_sum   'Zn8 H96 C144 N16 O32'
_cell_volume   2796.51343061
_cell_formula_units_Z   8
loop_
 _symmetry_equiv_pos_site_id
 _symmetry_equiv_pos_as_xyz
  1  'x, y, z'
loop_
 _atom_site_type_symbol
 _atom_site_label
 _atom_site_symmetry_multiplicity
 _atom_site_fract_x
 _atom_site_fract_y
 _atom_site_fract_z
 _atom_site_occupancy
  Zn  Zn0  1  0.28404000  0.21392000  0.85730000  1.0
  Zn  Zn1  1  0.71596000  0.78608000  0.85730000  1.0
  Zn  Zn2  1  0.71392000  0.21596000  0.64270000  1.0
  Zn  Zn3  1  0.28608000  0.78404000  0.64270000  1.0
  Zn  Zn4  1  0.78404000  0.71392000  0.35730000  1.0
  Zn  Zn5  1  0.21596000  0.28608000  0.35730000  1.0
  Zn  Zn6  1  0.21392000  0.71596000  0.14270000  1.0
  Zn  Zn7  1  0.78608000  0.28404000  0.14270000  1.0
  H  H8  1  0.30990000  0.11040000  0.05860000  1.0
  H  H9  1  0.18200000  0.18530000  0.41180000  1.0
  H  H10  1  0.10340000  0.18130000  0.11790000  1.0
  H  H11  1  0.03520000  0.13940000  0.94480000  1.0
  H  H12  1  0.02930000  0.05820000  0.10400000  1.0
  H  H13  1  0.09110000  0.02120000  0.41590000  1.0
  H  H14  1  0.16810000  0.02270000  0.70730000  1.0
  H  H15  1  0.22110000  0.92460000  0.39440000  1.0
  H  H16  1  0.36060000  0.95250000  0.18820000  1.0
  H  H17  1  0.33990000  0.02850000  0.97240000  1.0
  H  H18  1  0.20040000  0.00050000  0.17860000  1.0
  H  H19  1  0.30830000  0.23470000  0.24400000  1.0
  H  H20  1  0.69010000  0.88960000  0.05860000  1.0
  H  H21  1  0.81800000  0.81470000  0.41180000  1.0
  H  H22  1  0.89660000  0.81870000  0.11790000  1.0
  H  H23  1  0.96480000  0.86060000  0.94480000  1.0
  H  H24  1  0.97070000  0.94180000  0.10400000  1.0
  H  H25  1  0.90890000  0.97880000  0.41590000  1.0
  H  H26  1  0.83190000  0.97730000  0.70730000  1.0
  H  H27  1  0.77890000  0.07540000  0.39440000  1.0
  H  H28  1  0.63940000  0.04750000  0.18820000  1.0
  H  H29  1  0.66010000  0.97150000  0.97240000  1.0
  H  H30  1  0.79960000  0.99950000  0.17860000  1.0
  H  H31  1  0.69170000  0.76530000  0.24400000  1.0
  H  H32  1  0.61040000  0.19010000  0.44140000  1.0
  H  H33  1  0.68530000  0.31800000  0.08820000  1.0
  H  H34  1  0.68130000  0.39660000  0.38210000  1.0
  H  H35  1  0.63940000  0.46480000  0.55520000  1.0
  H  H36  1  0.55820000  0.47070000  0.39600000  1.0
  H  H37  1  0.52120000  0.40890000  0.08410000  1.0
  H  H38  1  0.52270000  0.33190000  0.79270000  1.0
  H  H39  1  0.42460000  0.27890000  0.10560000  1.0
  H  H40  1  0.45250000  0.13940000  0.31180000  1.0
  H  H41  1  0.52850000  0.16010000  0.52760000  1.0
  H  H42  1  0.50050000  0.29960000  0.32140000  1.0
  H  H43  1  0.73470000  0.19170000  0.25600000  1.0
  H  H44  1  0.38960000  0.80990000  0.44140000  1.0
  H  H45  1  0.31470000  0.68200000  0.08820000  1.0
  H  H46  1  0.31870000  0.60340000  0.38210000  1.0
  H  H47  1  0.36060000  0.53520000  0.55520000  1.0
  H  H48  1  0.44180000  0.52930000  0.39600000  1.0
  H  H49  1  0.47880000  0.59110000  0.08410000  1.0
  H  H50  1  0.47730000  0.66810000  0.79270000  1.0
  H  H51  1  0.57540000  0.72110000  0.10560000  1.0
  H  H52  1  0.54750000  0.86060000  0.31180000  1.0
  H  H53  1  0.47150000  0.83990000  0.52760000  1.0
  H  H54  1  0.49950000  0.70040000  0.32140000  1.0
  H  H55  1  0.26530000  0.80830000  0.25600000  1.0
  H  H56  1  0.80990000  0.61040000  0.55860000  1.0
  H  H57  1  0.68200000  0.68530000  0.91180000  1.0
  H  H58  1  0.60340000  0.68130000  0.61790000  1.0
  H  H59  1  0.53520000  0.63940000  0.44480000  1.0
  H  H60  1  0.52930000  0.55820000  0.60400000  1.0
  H  H61  1  0.59110000  0.52120000  0.91590000  1.0
  H  H62  1  0.66810000  0.52270000  0.20730000  1.0
  H  H63  1  0.72110000  0.42460000  0.89440000  1.0
  H  H64  1  0.86060000  0.45250000  0.68820000  1.0
  H  H65  1  0.83990000  0.52850000  0.47240000  1.0
  H  H66  1  0.70040000  0.50050000  0.67860000  1.0
  H  H67  1  0.80830000  0.73470000  0.74400000  1.0
  H  H68  1  0.19010000  0.38960000  0.55860000  1.0
  H  H69  1  0.31800000  0.31470000  0.91180000  1.0
  H  H70  1  0.39660000  0.31870000  0.61790000  1.0
  H  H71  1  0.46480000  0.36060000  0.44480000  1.0
  H  H72  1  0.47070000  0.44180000  0.60400000  1.0
  H  H73  1  0.40890000  0.47880000  0.91590000  1.0
  H  H74  1  0.33190000  0.47730000  0.20730000  1.0
  H  H75  1  0.27890000  0.57540000  0.89440000  1.0
  H  H76  1  0.13940000  0.54750000  0.68820000  1.0
  H  H77  1  0.16010000  0.47150000  0.47240000  1.0
  H  H78  1  0.29960000  0.49950000  0.67860000  1.0
  H  H79  1  0.19170000  0.26530000  0.74400000  1.0
  H  H80  1  0.11040000  0.69010000  0.94140000  1.0
  H  H81  1  0.18530000  0.81800000  0.58820000  1.0
  H  H82  1  0.18130000  0.89660000  0.88210000  1.0
  H  H83  1  0.13940000  0.96480000  0.05520000  1.0
  H  H84  1  0.05820000  0.97070000  0.89600000  1.0
  H  H85  1  0.02120000  0.90890000  0.58410000  1.0
  H  H86  1  0.02270000  0.83190000  0.29270000  1.0
  H  H87  1  0.92460000  0.77890000  0.60560000  1.0
  H  H88  1  0.95250000  0.63940000  0.81180000  1.0
  H  H89  1  0.02850000  0.66010000  0.02760000  1.0
  H  H90  1  0.00050000  0.79960000  0.82140000  1.0
  H  H91  1  0.23470000  0.69170000  0.75600000  1.0
  H  H92  1  0.88960000  0.30990000  0.94140000  1.0
  H  H93  1  0.81470000  0.18200000  0.58820000  1.0
  H  H94  1  0.81870000  0.10340000  0.88210000  1.0
  H  H95  1  0.86060000  0.03520000  0.05520000  1.0
  H  H96  1  0.94180000  0.02930000  0.89600000  1.0
  H  H97  1  0.97880000  0.09110000  0.58410000  1.0
  H  H98  1  0.97730000  0.16810000  0.29270000  1.0
  H  H99  1  0.07540000  0.22110000  0.60560000  1.0
  H  H100  1  0.04750000  0.36060000  0.81180000  1.0
  H  H101  1  0.97150000  0.33990000  0.02760000  1.0
  H  H102  1  0.99950000  0.20040000  0.82140000  1.0
  H  H103  1  0.76530000  0.30830000  0.75600000  1.0
  C  C104  1  0.27990000  0.10850000  0.94600000  1.0
  C  C105  1  0.21530000  0.12900000  0.65670000  1.0
  C  C106  1  0.17900000  0.15280000  0.46900000  1.0
  C  C107  1  0.13820000  0.12740000  0.36910000  1.0
  C  C108  1  0.10080000  0.14890000  0.17800000  1.0
  C  C109  1  0.05980000  0.12410000  0.07400000  1.0
  C  C110  1  0.05650000  0.07580000  0.16800000  1.0
  C  C111  1  0.09370000  0.05370000  0.35700000  1.0
  C  C112  1  0.13500000  0.07880000  0.46180000  1.0
  C  C113  1  0.17110000  0.05520000  0.64900000  1.0
  C  C114  1  0.21180000  0.08050000  0.74800000  1.0
  C  C115  1  0.24490000  0.94540000  0.31000000  1.0
  C  C116  1  0.29290000  0.93100000  0.31300000  1.0
  C  C117  1  0.32850000  0.96210000  0.18600000  1.0
  C  C118  1  0.31610000  0.00760000  0.05700000  1.0
  C  C119  1  0.26810000  0.02200000  0.05400000  1.0
  C  C120  1  0.23250000  0.99090000  0.18000000  1.0
  C  C121  1  0.30300000  0.88040000  0.44900000  1.0
  C  C122  1  0.72010000  0.89150000  0.94600000  1.0
  C  C123  1  0.78470000  0.87100000  0.65670000  1.0
  C  C124  1  0.82100000  0.84720000  0.46900000  1.0
  C  C125  1  0.86180000  0.87260000  0.36910000  1.0
  C  C126  1  0.89920000  0.85110000  0.17800000  1.0
  C  C127  1  0.94020000  0.87590000  0.07400000  1.0
  C  C128  1  0.94350000  0.92420000  0.16800000  1.0
  C  C129  1  0.90630000  0.94630000  0.35700000  1.0
  C  C130  1  0.86500000  0.92120000  0.46180000  1.0
  C  C131  1  0.82890000  0.94480000  0.64900000  1.0
  C  C132  1  0.78820000  0.91950000  0.74800000  1.0
  C  C133  1  0.75510000  0.05460000  0.31000000  1.0
  C  C134  1  0.70710000  0.06900000  0.31300000  1.0
  C  C135  1  0.67150000  0.03790000  0.18600000  1.0
  C  C136  1  0.68390000  0.99240000  0.05700000  1.0
  C  C137  1  0.73190000  0.97800000  0.05400000  1.0
  C  C138  1  0.76750000  0.00910000  0.18000000  1.0
  C  C139  1  0.69700000  0.11960000  0.44900000  1.0
  C  C140  1  0.60850000  0.22010000  0.55400000  1.0
  C  C141  1  0.62900000  0.28470000  0.84330000  1.0
  C  C142  1  0.65280000  0.32100000  0.03100000  1.0
  C  C143  1  0.62740000  0.36180000  0.13090000  1.0
  C  C144  1  0.64890000  0.39920000  0.32200000  1.0
  C  C145  1  0.62410000  0.44020000  0.42600000  1.0
  C  C146  1  0.57580000  0.44350000  0.33200000  1.0
  C  C147  1  0.55370000  0.40630000  0.14300000  1.0
  C  C148  1  0.57880000  0.36500000  0.03820000  1.0
  C  C149  1  0.55520000  0.32890000  0.85100000  1.0
  C  C150  1  0.58050000  0.28820000  0.75200000  1.0
  C  C151  1  0.44540000  0.25510000  0.19000000  1.0
  C  C152  1  0.43100000  0.20710000  0.18700000  1.0
  C  C153  1  0.46210000  0.17150000  0.31400000  1.0
  C  C154  1  0.50760000  0.18390000  0.44300000  1.0
  C  C155  1  0.52200000  0.23190000  0.44600000  1.0
  C  C156  1  0.49090000  0.26750000  0.32000000  1.0
  C  C157  1  0.38040000  0.19700000  0.05100000  1.0
  C  C158  1  0.39150000  0.77990000  0.55400000  1.0
  C  C159  1  0.37100000  0.71530000  0.84330000  1.0
  C  C160  1  0.34720000  0.67900000  0.03100000  1.0
  C  C161  1  0.37260000  0.63820000  0.13090000  1.0
  C  C162  1  0.35110000  0.60080000  0.32200000  1.0
  C  C163  1  0.37590000  0.55980000  0.42600000  1.0
  C  C164  1  0.42420000  0.55650000  0.33200000  1.0
  C  C165  1  0.44630000  0.59370000  0.14300000  1.0
  C  C166  1  0.42120000  0.63500000  0.03820000  1.0
  C  C167  1  0.44480000  0.67110000  0.85100000  1.0
  C  C168  1  0.41950000  0.71180000  0.75200000  1.0
  C  C169  1  0.55460000  0.74490000  0.19000000  1.0
  C  C170  1  0.56900000  0.79290000  0.18700000  1.0
  C  C171  1  0.53790000  0.82850000  0.31400000  1.0
  C  C172  1  0.49240000  0.81610000  0.44300000  1.0
  C  C173  1  0.47800000  0.76810000  0.44600000  1.0
  C  C174  1  0.50910000  0.73250000  0.32000000  1.0
  C  C175  1  0.61960000  0.80300000  0.05100000  1.0
  C  C176  1  0.77990000  0.60850000  0.44600000  1.0
  C  C177  1  0.71530000  0.62900000  0.15670000  1.0
  C  C178  1  0.67900000  0.65280000  0.96900000  1.0
  C  C179  1  0.63820000  0.62740000  0.86910000  1.0
  C  C180  1  0.60080000  0.64890000  0.67800000  1.0
  C  C181  1  0.55980000  0.62410000  0.57400000  1.0
  C  C182  1  0.55650000  0.57580000  0.66800000  1.0
  C  C183  1  0.59370000  0.55370000  0.85700000  1.0
  C  C184  1  0.63500000  0.57880000  0.96180000  1.0
  C  C185  1  0.67110000  0.55520000  0.14900000  1.0
  C  C186  1  0.71180000  0.58050000  0.24800000  1.0
  C  C187  1  0.74490000  0.44540000  0.81000000  1.0
  C  C188  1  0.79290000  0.43100000  0.81300000  1.0
  C  C189  1  0.82850000  0.46210000  0.68600000  1.0
  C  C190  1  0.81610000  0.50760000  0.55700000  1.0
  C  C191  1  0.76810000  0.52200000  0.55400000  1.0
  C  C192  1  0.73250000  0.49090000  0.68000000  1.0
  C  C193  1  0.80300000  0.38040000  0.94900000  1.0
  C  C194  1  0.22010000  0.39150000  0.44600000  1.0
  C  C195  1  0.28470000  0.37100000  0.15670000  1.0
  C  C196  1  0.32100000  0.34720000  0.96900000  1.0
  C  C197  1  0.36180000  0.37260000  0.86910000  1.0
  C  C198  1  0.39920000  0.35110000  0.67800000  1.0
  C  C199  1  0.44020000  0.37590000  0.57400000  1.0
  C  C200  1  0.44350000  0.42420000  0.66800000  1.0
  C  C201  1  0.40630000  0.44630000  0.85700000  1.0
  C  C202  1  0.36500000  0.42120000  0.96180000  1.0
  C  C203  1  0.32890000  0.44480000  0.14900000  1.0
  C  C204  1  0.28820000  0.41950000  0.24800000  1.0
  C  C205  1  0.25510000  0.55460000  0.81000000  1.0
  C  C206  1  0.20710000  0.56900000  0.81300000  1.0
  C  C207  1  0.17150000  0.53790000  0.68600000  1.0
  C  C208  1  0.18390000  0.49240000  0.55700000  1.0
  C  C209  1  0.23190000  0.47800000  0.55400000  1.0
  C  C210  1  0.26750000  0.50910000  0.68000000  1.0
  C  C211  1  0.19700000  0.61960000  0.94900000  1.0
  C  C212  1  0.10850000  0.72010000  0.05400000  1.0
  C  C213  1  0.12900000  0.78470000  0.34330000  1.0
  C  C214  1  0.15280000  0.82100000  0.53100000  1.0
  C  C215  1  0.12740000  0.86180000  0.63090000  1.0
  C  C216  1  0.14890000  0.89920000  0.82200000  1.0
  C  C217  1  0.12410000  0.94020000  0.92600000  1.0
  C  C218  1  0.07580000  0.94350000  0.83200000  1.0
  C  C219  1  0.05370000  0.90630000  0.64300000  1.0
  C  C220  1  0.07880000  0.86500000  0.53820000  1.0
  C  C221  1  0.05520000  0.82890000  0.35100000  1.0
  C  C222  1  0.08050000  0.78820000  0.25200000  1.0
  C  C223  1  0.94540000  0.75510000  0.69000000  1.0
  C  C224  1  0.93100000  0.70710000  0.68700000  1.0
  C  C225  1  0.96210000  0.67150000  0.81400000  1.0
  C  C226  1  0.00760000  0.68390000  0.94300000  1.0
  C  C227  1  0.02200000  0.73190000  0.94600000  1.0
  C  C228  1  0.99090000  0.76750000  0.82000000  1.0
  C  C229  1  0.88040000  0.69700000  0.55100000  1.0
  C  C230  1  0.89150000  0.27990000  0.05400000  1.0
  C  C231  1  0.87100000  0.21530000  0.34330000  1.0
  C  C232  1  0.84720000  0.17900000  0.53100000  1.0
  C  C233  1  0.87260000  0.13820000  0.63090000  1.0
  C  C234  1  0.85110000  0.10080000  0.82200000  1.0
  C  C235  1  0.87590000  0.05980000  0.92600000  1.0
  C  C236  1  0.92420000  0.05650000  0.83200000  1.0
  C  C237  1  0.94630000  0.09370000  0.64300000  1.0
  C  C238  1  0.92120000  0.13500000  0.53820000  1.0
  C  C239  1  0.94480000  0.17110000  0.35100000  1.0
  C  C240  1  0.91950000  0.21180000  0.25200000  1.0
  C  C241  1  0.05460000  0.24490000  0.69000000  1.0
  C  C242  1  0.06900000  0.29290000  0.68700000  1.0
  C  C243  1  0.03790000  0.32850000  0.81400000  1.0
  C  C244  1  0.99240000  0.31610000  0.94300000  1.0
  C  C245  1  0.97800000  0.26810000  0.94600000  1.0
  C  C246  1  0.00910000  0.23250000  0.82000000  1.0
  C  C247  1  0.11960000  0.30300000  0.55100000  1.0
  N  N248  1  0.25930000  0.14540000  0.78900000  1.0
  N  N249  1  0.25370000  0.06720000  0.93100000  1.0
  N  N250  1  0.74070000  0.85460000  0.78900000  1.0
  N  N251  1  0.74630000  0.93280000  0.93100000  1.0
  N  N252  1  0.64540000  0.24070000  0.71100000  1.0
  N  N253  1  0.56720000  0.24630000  0.56900000  1.0
  N  N254  1  0.35460000  0.75930000  0.71100000  1.0
  N  N255  1  0.43280000  0.75370000  0.56900000  1.0
  N  N256  1  0.75930000  0.64540000  0.28900000  1.0
  N  N257  1  0.75370000  0.56720000  0.43100000  1.0
  N  N258  1  0.24070000  0.35460000  0.28900000  1.0
  N  N259  1  0.24630000  0.43280000  0.43100000  1.0
  N  N260  1  0.14540000  0.74070000  0.21100000  1.0
  N  N261  1  0.06720000  0.74630000  0.06900000  1.0
  N  N262  1  0.85460000  0.25930000  0.21100000  1.0
  N  N263  1  0.93280000  0.25370000  0.06900000  1.0
  O  O264  1  0.27450000  0.85880000  0.60400000  1.0
  O  O265  1  0.34040000  0.86190000  0.27700000  1.0
  O  O266  1  0.28530000  0.24690000  0.36800000  1.0
  O  O267  1  0.34320000  0.87300000  0.63200000  1.0
  O  O268  1  0.72550000  0.14120000  0.60400000  1.0
  O  O269  1  0.65960000  0.13810000  0.27700000  1.0
  O  O270  1  0.71470000  0.75310000  0.36800000  1.0
  O  O271  1  0.65680000  0.12700000  0.63200000  1.0
  O  O272  1  0.35880000  0.22550000  0.89600000  1.0
  O  O273  1  0.36190000  0.15960000  0.22300000  1.0
  O  O274  1  0.74690000  0.21470000  0.13200000  1.0
  O  O275  1  0.37300000  0.15680000  0.86800000  1.0
  O  O276  1  0.64120000  0.77450000  0.89600000  1.0
  O  O277  1  0.63810000  0.84040000  0.22300000  1.0
  O  O278  1  0.25310000  0.78530000  0.13200000  1.0
  O  O279  1  0.62700000  0.84320000  0.86800000  1.0
  O  O280  1  0.77450000  0.35880000  0.10400000  1.0
  O  O281  1  0.84040000  0.36190000  0.77700000  1.0
  O  O282  1  0.78530000  0.74690000  0.86800000  1.0
  O  O283  1  0.84320000  0.37300000  0.13200000  1.0
  O  O284  1  0.22550000  0.64120000  0.10400000  1.0
  O  O285  1  0.15960000  0.63810000  0.77700000  1.0
  O  O286  1  0.21470000  0.25310000  0.86800000  1.0
  O  O287  1  0.15680000  0.62700000  0.13200000  1.0
  O  O288  1  0.85880000  0.72550000  0.39600000  1.0
  O  O289  1  0.86190000  0.65960000  0.72300000  1.0
  O  O290  1  0.24690000  0.71470000  0.63200000  1.0
  O  O291  1  0.87300000  0.65680000  0.36800000  1.0
  O  O292  1  0.14120000  0.27450000  0.39600000  1.0
  O  O293  1  0.13810000  0.34040000  0.72300000  1.0
  O  O294  1  0.75310000  0.28530000  0.63200000  1.0
  O  O295  1  0.12700000  0.34320000  0.36800000  1.0
