# generated using pymatgen
data_Zn2H6(C2N3)3
_symmetry_space_group_name_H-M   'P 1'
_cell_length_a   7.60010000
_cell_length_b   9.97580000
_cell_length_c   17.51080000
_cell_angle_alpha   90.00000000
_cell_angle_beta   90.00000000
_cell_angle_gamma   90.00000000
_symmetry_Int_Tables_number   1
_chemical_formula_structural   Zn2H6(C2N3)3
_chemical_formula_sum   'Zn8 H24 C24 N36'
_cell_volume   1327.61768209
_cell_formula_units_Z   4
loop_
 _symmetry_equiv_pos_site_id
 _symmetry_equiv_pos_as_xyz
  1  'x, y, z'
loop_
 _atom_site_type_symbol
 _atom_site_label
 _atom_site_symmetry_multiplicity
 _atom_site_fract_x
 _atom_site_fract_y
 _atom_site_fract_z
 _atom_site_occupancy
  Zn  Zn0  1  0.34975000  0.25000000  0.41926000  1.0
  Zn  Zn1  1  0.48977000  0.25000000  0.76296000  1.0
  Zn  Zn2  1  0.15025000  0.75000000  0.91926000  1.0
  Zn  Zn3  1  0.01023000  0.75000000  0.26296000  1.0
  Zn  Zn4  1  0.65025000  0.75000000  0.58074000  1.0
  Zn  Zn5  1  0.51023000  0.75000000  0.23704000  1.0
  Zn  Zn6  1  0.84975000  0.25000000  0.08074000  1.0
  Zn  Zn7  1  0.98977000  0.25000000  0.73704000  1.0
  H  H8  1  0.53720000  0.45920000  0.31840000  1.0
  H  H9  1  0.03790000  0.46830000  0.37230000  1.0
  H  H10  1  0.96280000  0.54080000  0.81840000  1.0
  H  H11  1  0.46210000  0.53170000  0.87230000  1.0
  H  H12  1  0.46280000  0.95920000  0.68160000  1.0
  H  H13  1  0.96210000  0.96830000  0.62770000  1.0
  H  H14  1  0.03720000  0.04080000  0.18160000  1.0
  H  H15  1  0.53790000  0.03170000  0.12770000  1.0
  H  H16  1  0.46280000  0.54080000  0.68160000  1.0
  H  H17  1  0.96210000  0.53170000  0.62770000  1.0
  H  H18  1  0.03720000  0.45920000  0.18160000  1.0
  H  H19  1  0.53790000  0.46830000  0.12770000  1.0
  H  H20  1  0.53720000  0.04080000  0.31840000  1.0
  H  H21  1  0.03790000  0.03170000  0.37230000  1.0
  H  H22  1  0.96280000  0.95920000  0.81840000  1.0
  H  H23  1  0.46210000  0.96830000  0.87230000  1.0
  H  H24  1  0.53530000  0.25000000  0.57770000  1.0
  H  H25  1  0.02620000  0.25000000  0.54290000  1.0
  H  H26  1  0.96470000  0.75000000  0.07770000  1.0
  H  H27  1  0.47380000  0.75000000  0.04290000  1.0
  H  H28  1  0.46470000  0.75000000  0.42230000  1.0
  H  H29  1  0.97380000  0.75000000  0.45710000  1.0
  H  H30  1  0.03530000  0.25000000  0.92230000  1.0
  H  H31  1  0.52620000  0.25000000  0.95710000  1.0
  C  C32  1  0.41760000  0.48589000  0.32250000  1.0
  C  C33  1  0.14950000  0.49060000  0.35145000  1.0
  C  C34  1  0.08240000  0.51411000  0.82250000  1.0
  C  C35  1  0.35050000  0.50940000  0.85145000  1.0
  C  C36  1  0.58240000  0.98589000  0.67750000  1.0
  C  C37  1  0.85050000  0.99060000  0.64855000  1.0
  C  C38  1  0.91760000  0.01411000  0.17750000  1.0
  C  C39  1  0.64950000  0.00940000  0.14855000  1.0
  C  C40  1  0.58240000  0.51411000  0.67750000  1.0
  C  C41  1  0.85050000  0.50940000  0.64855000  1.0
  C  C42  1  0.91760000  0.48589000  0.17750000  1.0
  C  C43  1  0.64950000  0.49060000  0.14855000  1.0
  C  C44  1  0.41760000  0.01411000  0.32250000  1.0
  C  C45  1  0.14950000  0.00940000  0.35145000  1.0
  C  C46  1  0.08240000  0.98589000  0.82250000  1.0
  C  C47  1  0.35050000  0.99060000  0.85145000  1.0
  C  C48  1  0.41170000  0.25000000  0.58588000  1.0
  C  C49  1  0.13810000  0.25000000  0.56714000  1.0
  C  C50  1  0.08830000  0.75000000  0.08588000  1.0
  C  C51  1  0.36190000  0.75000000  0.06714000  1.0
  C  C52  1  0.58830000  0.75000000  0.41412000  1.0
  C  C53  1  0.86190000  0.75000000  0.43286000  1.0
  C  C54  1  0.91170000  0.25000000  0.91412000  1.0
  C  C55  1  0.63810000  0.25000000  0.93286000  1.0
  N  N56  1  0.29570000  0.41598000  0.36170000  1.0
  N  N57  1  0.35388000  0.59487000  0.29041000  1.0
  N  N58  1  0.17832000  0.59813000  0.30931000  1.0
  N  N59  1  0.20430000  0.58402000  0.86170000  1.0
  N  N60  1  0.14612000  0.40513000  0.79041000  1.0
  N  N61  1  0.32168000  0.40187000  0.80931000  1.0
  N  N62  1  0.70430000  0.91598000  0.63830000  1.0
  N  N63  1  0.64612000  0.09487000  0.70959000  1.0
  N  N64  1  0.82168000  0.09813000  0.69069000  1.0
  N  N65  1  0.79570000  0.08402000  0.13830000  1.0
  N  N66  1  0.85388000  0.90513000  0.20959000  1.0
  N  N67  1  0.67832000  0.90187000  0.19069000  1.0
  N  N68  1  0.70430000  0.58402000  0.63830000  1.0
  N  N69  1  0.64612000  0.40513000  0.70959000  1.0
  N  N70  1  0.82168000  0.40187000  0.69069000  1.0
  N  N71  1  0.79570000  0.41598000  0.13830000  1.0
  N  N72  1  0.85388000  0.59487000  0.20959000  1.0
  N  N73  1  0.67832000  0.59813000  0.19069000  1.0
  N  N74  1  0.29570000  0.08402000  0.36170000  1.0
  N  N75  1  0.35388000  0.90513000  0.29041000  1.0
  N  N76  1  0.17832000  0.90187000  0.30931000  1.0
  N  N77  1  0.20430000  0.91598000  0.86170000  1.0
  N  N78  1  0.14612000  0.09487000  0.79041000  1.0
  N  N79  1  0.32168000  0.09813000  0.80931000  1.0
  N  N80  1  0.29270000  0.25000000  0.52887000  1.0
  N  N81  1  0.33890000  0.25000000  0.65435000  1.0
  N  N82  1  0.16030000  0.25000000  0.64200000  1.0
  N  N83  1  0.20730000  0.75000000  0.02887000  1.0
  N  N84  1  0.16110000  0.75000000  0.15435000  1.0
  N  N85  1  0.33970000  0.75000000  0.14200000  1.0
  N  N86  1  0.70730000  0.75000000  0.47113000  1.0
  N  N87  1  0.66110000  0.75000000  0.34565000  1.0
  N  N88  1  0.83970000  0.75000000  0.35800000  1.0
  N  N89  1  0.79270000  0.25000000  0.97113000  1.0
  N  N90  1  0.83890000  0.25000000  0.84565000  1.0
  N  N91  1  0.66030000  0.25000000  0.85800000  1.0
