# generated using pymatgen
data_Zn4H18C37O15
_symmetry_space_group_name_H-M   'P 1'
_cell_length_a   10.37700000
_cell_length_b   27.47400000
_cell_length_c   27.70100000
_cell_angle_alpha   90.00000000
_cell_angle_beta   90.00000000
_cell_angle_gamma   90.00000000
_symmetry_Int_Tables_number   1
_chemical_formula_structural   Zn4H18C37O15
_chemical_formula_sum   'Zn16 H72 C148 O60'
_cell_volume   7897.49133230
_cell_formula_units_Z   4
loop_
 _symmetry_equiv_pos_site_id
 _symmetry_equiv_pos_as_xyz
  1  'x, y, z'
loop_
 _atom_site_type_symbol
 _atom_site_label
 _atom_site_symmetry_multiplicity
 _atom_site_fract_x
 _atom_site_fract_y
 _atom_site_fract_z
 _atom_site_occupancy
  Zn  Zn0  1  0.65190000  0.79906000  0.69605000  1.0
  Zn  Zn1  1  0.15190000  0.29906000  0.80395000  1.0
  Zn  Zn2  1  0.34810000  0.20094000  0.30395000  1.0
  Zn  Zn3  1  0.00000000  0.73761000  0.09917000  1.0
  Zn  Zn4  1  0.50000000  0.30053000  0.30589000  1.0
  Zn  Zn5  1  0.50000000  0.23761000  0.40083000  1.0
  Zn  Zn6  1  0.00000000  0.26239000  0.90083000  1.0
  Zn  Zn7  1  0.00000000  0.19947000  0.80589000  1.0
  Zn  Zn8  1  0.84810000  0.29906000  0.80395000  1.0
  Zn  Zn9  1  0.50000000  0.69947000  0.69411000  1.0
  Zn  Zn10  1  0.00000000  0.80053000  0.19411000  1.0
  Zn  Zn11  1  0.15190000  0.70094000  0.19605000  1.0
  Zn  Zn12  1  0.84810000  0.70094000  0.19605000  1.0
  Zn  Zn13  1  0.34810000  0.79906000  0.69605000  1.0
  Zn  Zn14  1  0.65190000  0.20094000  0.30395000  1.0
  Zn  Zn15  1  0.50000000  0.76239000  0.59917000  1.0
  H  H16  1  0.18160000  0.75250000  0.43150000  1.0
  H  H17  1  0.31840000  0.74750000  0.93150000  1.0
  H  H18  1  0.50000000  0.77340000  0.21210000  1.0
  H  H19  1  0.00000000  0.92980000  0.95560000  1.0
  H  H20  1  0.29640000  0.96510000  0.26020000  1.0
  H  H21  1  0.68870000  0.22880000  0.14490000  1.0
  H  H22  1  0.80940000  0.60460000  0.74890000  1.0
  H  H23  1  0.30940000  0.89540000  0.24890000  1.0
  H  H24  1  0.31130000  0.22880000  0.14490000  1.0
  H  H25  1  0.00000000  0.81230000  0.62210000  1.0
  H  H26  1  0.00000000  0.07020000  0.04440000  1.0
  H  H27  1  0.20360000  0.53490000  0.76020000  1.0
  H  H28  1  0.00000000  0.06540000  0.87690000  1.0
  H  H29  1  0.81180000  0.54890000  0.21820000  1.0
  H  H30  1  0.68820000  0.04890000  0.28180000  1.0
  H  H31  1  0.81130000  0.72880000  0.35510000  1.0
  H  H32  1  0.68870000  0.77120000  0.85510000  1.0
  H  H33  1  0.18870000  0.72880000  0.35510000  1.0
  H  H34  1  0.30940000  0.10460000  0.75110000  1.0
  H  H35  1  0.68820000  0.95110000  0.71820000  1.0
  H  H36  1  0.70360000  0.96510000  0.26020000  1.0
  H  H37  1  0.00000000  0.93460000  0.12310000  1.0
  H  H38  1  0.81840000  0.75250000  0.43150000  1.0
  H  H39  1  0.69060000  0.10460000  0.75110000  1.0
  H  H40  1  0.69680000  0.71900000  0.99740000  1.0
  H  H41  1  0.50000000  0.68770000  0.12210000  1.0
  H  H42  1  0.19680000  0.78100000  0.49740000  1.0
  H  H43  1  0.00000000  0.99340000  0.92110000  1.0
  H  H44  1  0.79640000  0.53490000  0.76020000  1.0
  H  H45  1  0.19680000  0.21900000  0.50260000  1.0
  H  H46  1  0.50000000  0.42980000  0.54440000  1.0
  H  H47  1  0.30320000  0.28100000  0.00260000  1.0
  H  H48  1  0.80320000  0.21900000  0.50260000  1.0
  H  H49  1  0.81180000  0.45110000  0.78180000  1.0
  H  H50  1  0.50000000  0.22660000  0.78790000  1.0
  H  H51  1  0.50000000  0.35770000  0.50020000  1.0
  H  H52  1  0.18160000  0.24750000  0.56850000  1.0
  H  H53  1  0.50000000  0.31230000  0.87790000  1.0
  H  H54  1  0.18820000  0.54890000  0.21820000  1.0
  H  H55  1  0.20360000  0.46510000  0.23980000  1.0
  H  H56  1  0.18820000  0.45110000  0.78180000  1.0
  H  H57  1  0.50000000  0.49340000  0.57890000  1.0
  H  H58  1  0.31130000  0.77120000  0.85510000  1.0
  H  H59  1  0.50000000  0.56540000  0.62310000  1.0
  H  H60  1  0.00000000  0.00660000  0.07890000  1.0
  H  H61  1  0.70360000  0.03490000  0.73980000  1.0
  H  H62  1  0.29640000  0.03490000  0.73980000  1.0
  H  H63  1  0.31180000  0.95110000  0.71820000  1.0
  H  H64  1  0.31180000  0.04890000  0.28180000  1.0
  H  H65  1  0.68160000  0.74750000  0.93150000  1.0
  H  H66  1  0.81130000  0.27120000  0.64490000  1.0
  H  H67  1  0.81840000  0.24750000  0.56850000  1.0
  H  H68  1  0.79640000  0.46510000  0.23980000  1.0
  H  H69  1  0.69060000  0.89540000  0.24890000  1.0
  H  H70  1  0.68160000  0.25250000  0.06850000  1.0
  H  H71  1  0.50000000  0.50660000  0.42110000  1.0
  H  H72  1  0.50000000  0.43460000  0.37690000  1.0
  H  H73  1  0.19060000  0.39540000  0.25110000  1.0
  H  H74  1  0.00000000  0.18770000  0.37790000  1.0
  H  H75  1  0.50000000  0.64230000  0.49980000  1.0
  H  H76  1  0.00000000  0.85770000  0.99980000  1.0
  H  H77  1  0.18870000  0.27120000  0.64490000  1.0
  H  H78  1  0.19060000  0.60460000  0.74890000  1.0
  H  H79  1  0.69680000  0.28100000  0.00260000  1.0
  H  H80  1  0.80940000  0.39540000  0.25110000  1.0
  H  H81  1  0.50000000  0.57020000  0.45560000  1.0
  H  H82  1  0.80320000  0.78100000  0.49740000  1.0
  H  H83  1  0.00000000  0.14230000  0.00020000  1.0
  H  H84  1  0.00000000  0.72660000  0.71210000  1.0
  H  H85  1  0.30320000  0.71900000  0.99740000  1.0
  H  H86  1  0.00000000  0.27340000  0.28790000  1.0
  H  H87  1  0.31840000  0.25250000  0.06850000  1.0
  C  C88  1  0.50000000  0.72240000  0.99000000  1.0
  C  C89  1  0.00000000  0.02350000  0.93720000  1.0
  C  C90  1  0.50000000  0.89290000  0.70170000  1.0
  C  C91  1  0.88680000  0.62190000  0.74510000  1.0
  C  C92  1  0.11840000  0.78460000  0.51410000  1.0
  C  C93  1  0.50000000  0.05510000  0.28850000  1.0
  C  C94  1  0.00000000  0.77760000  0.49000000  1.0
  C  C95  1  0.00000000  0.40160000  0.24720000  1.0
  C  C96  1  0.39660000  0.25170000  0.08560000  1.0
  C  C97  1  0.00000000  0.93350000  0.08920000  1.0
  C  C98  1  0.89660000  0.24830000  0.58560000  1.0
  C  C99  1  0.00000000  0.44490000  0.78850000  1.0
  C  C100  1  0.76050000  0.30430000  0.28030000  1.0
  C  C101  1  0.00000000  0.22240000  0.51000000  1.0
  C  C102  1  0.00000000  0.06650000  0.91080000  1.0
  C  C103  1  0.00000000  0.54420000  0.76620000  1.0
  C  C104  1  0.60830000  0.23710000  0.13150000  1.0
  C  C105  1  0.50000000  0.61220000  0.51590000  1.0
  C  C106  1  0.26050000  0.19570000  0.78030000  1.0
  C  C107  1  0.88160000  0.78460000  0.51410000  1.0
  C  C108  1  0.87530000  0.48040000  0.23290000  1.0
  C  C109  1  0.89660000  0.75170000  0.41440000  1.0
  C  C110  1  0.50000000  0.78050000  0.78900000  1.0
  C  C111  1  0.00000000  0.59840000  0.75280000  1.0
  C  C112  1  0.00000000  0.06910000  0.01050000  1.0
  C  C113  1  0.24230000  0.79940000  0.59070000  1.0
  C  C114  1  0.00000000  0.69440000  0.72350000  1.0
  C  C115  1  0.00000000  0.71950000  0.28900000  1.0
  C  C116  1  0.50000000  0.94490000  0.71150000  1.0
  C  C117  1  0.25770000  0.29940000  0.90930000  1.0
  C  C118  1  0.10830000  0.73710000  0.36850000  1.0
  C  C119  1  0.39660000  0.74830000  0.91440000  1.0
  C  C120  1  0.50000000  0.80560000  0.22350000  1.0
  C  C121  1  0.00000000  0.73360000  0.34000000  1.0
  C  C122  1  0.61320000  0.12190000  0.75490000  1.0
  C  C123  1  0.50000000  0.65770000  0.59790000  1.0
  C  C124  1  0.00000000  0.97520000  0.01290000  1.0
  C  C125  1  0.50000000  0.38920000  0.43430000  1.0
  C  C126  1  0.88830000  0.46920000  0.77960000  1.0
  C  C127  1  0.50000000  0.19440000  0.77650000  1.0
  C  C128  1  0.00000000  0.88780000  0.01590000  1.0
  C  C129  1  0.38080000  0.82860000  0.23170000  1.0
  C  C130  1  0.89170000  0.73710000  0.36850000  1.0
  C  C131  1  0.25770000  0.70060000  0.09070000  1.0
  C  C132  1  0.11170000  0.53080000  0.22040000  1.0
  C  C133  1  0.11170000  0.46920000  0.77960000  1.0
  C  C134  1  0.23950000  0.69570000  0.71970000  1.0
  C  C135  1  0.61170000  0.03080000  0.27960000  1.0
  C  C136  1  0.11840000  0.21540000  0.48590000  1.0
  C  C137  1  0.00000000  0.15770000  0.90210000  1.0
  C  C138  1  0.00000000  0.97650000  0.06280000  1.0
  C  C139  1  0.23950000  0.30430000  0.28030000  1.0
  C  C140  1  0.10340000  0.75170000  0.41440000  1.0
  C  C141  1  0.38830000  0.96920000  0.72040000  1.0
  C  C142  1  0.38160000  0.28460000  0.98590000  1.0
  C  C143  1  0.11790000  0.20300000  0.43690000  1.0
  C  C144  1  0.50000000  0.90160000  0.25280000  1.0
  C  C145  1  0.00000000  0.02480000  0.98710000  1.0
  C  C146  1  0.00000000  0.30560000  0.27650000  1.0
  C  C147  1  0.88080000  0.67140000  0.73170000  1.0
  C  C148  1  0.00000000  0.23510000  0.56230000  1.0
  C  C149  1  0.50000000  0.56650000  0.58920000  1.0
  C  C150  1  0.39170000  0.76290000  0.86850000  1.0
  C  C151  1  0.11790000  0.79700000  0.56310000  1.0
  C  C152  1  0.00000000  0.11220000  0.98410000  1.0
  C  C153  1  0.50000000  0.34230000  0.40210000  1.0
  C  C154  1  0.11320000  0.37810000  0.25490000  1.0
  C  C155  1  0.00000000  0.88920000  0.06570000  1.0
  C  C156  1  0.12470000  0.51960000  0.76710000  1.0
  C  C157  1  0.00000000  0.76490000  0.43770000  1.0
  C  C158  1  0.50000000  0.09840000  0.74720000  1.0
  C  C159  1  0.50000000  0.76640000  0.84000000  1.0
  C  C160  1  0.00000000  0.55510000  0.21150000  1.0
  C  C161  1  0.50000000  0.43090000  0.51050000  1.0
  C  C162  1  0.10340000  0.24830000  0.58560000  1.0
  C  C163  1  0.00000000  0.80380000  0.58920000  1.0
  C  C164  1  0.88830000  0.53080000  0.22040000  1.0
  C  C165  1  0.38160000  0.71540000  0.01410000  1.0
  C  C166  1  0.12470000  0.48040000  0.23290000  1.0
  C  C167  1  0.75770000  0.79940000  0.59070000  1.0
  C  C168  1  0.50000000  0.73510000  0.93770000  1.0
  C  C169  1  0.87530000  0.51960000  0.76710000  1.0
  C  C170  1  0.10830000  0.26290000  0.63150000  1.0
  C  C171  1  0.76050000  0.69570000  0.71970000  1.0
  C  C172  1  0.50000000  0.61080000  0.56570000  1.0
  C  C173  1  0.11320000  0.62190000  0.74510000  1.0
  C  C174  1  0.61790000  0.29700000  0.93690000  1.0
  C  C175  1  0.39170000  0.23710000  0.13150000  1.0
  C  C176  1  0.89170000  0.26290000  0.63150000  1.0
  C  C177  1  0.60830000  0.76290000  0.86850000  1.0
  C  C178  1  0.73950000  0.19570000  0.78030000  1.0
  C  C179  1  0.24230000  0.20060000  0.40930000  1.0
  C  C180  1  0.74230000  0.70060000  0.09070000  1.0
  C  C181  1  0.38210000  0.70300000  0.06310000  1.0
  C  C182  1  0.00000000  0.93090000  0.98950000  1.0
  C  C183  1  0.50000000  0.38780000  0.48410000  1.0
  C  C184  1  0.26050000  0.80430000  0.21970000  1.0
  C  C185  1  0.88680000  0.37810000  0.25490000  1.0
  C  C186  1  0.50000000  0.30380000  0.91080000  1.0
  C  C187  1  0.00000000  0.19620000  0.41080000  1.0
  C  C188  1  0.00000000  0.60710000  0.20170000  1.0
  C  C189  1  0.61170000  0.96920000  0.72040000  1.0
  C  C190  1  0.62470000  0.01960000  0.73290000  1.0
  C  C191  1  0.50000000  0.04420000  0.73380000  1.0
  C  C192  1  0.50000000  0.95580000  0.26620000  1.0
  C  C193  1  0.60340000  0.25170000  0.08560000  1.0
  C  C194  1  0.74230000  0.29940000  0.90930000  1.0
  C  C195  1  0.38680000  0.12190000  0.75490000  1.0
  C  C196  1  0.61920000  0.17140000  0.76830000  1.0
  C  C197  1  0.75770000  0.20060000  0.40930000  1.0
  C  C198  1  0.00000000  0.39290000  0.79830000  1.0
  C  C199  1  0.50000000  0.52480000  0.51290000  1.0
  C  C200  1  0.88160000  0.21540000  0.48590000  1.0
  C  C201  1  0.37530000  0.98040000  0.26710000  1.0
  C  C202  1  0.88080000  0.32860000  0.26830000  1.0
  C  C203  1  0.00000000  0.28050000  0.71100000  1.0
  C  C204  1  0.50000000  0.69620000  0.08920000  1.0
  C  C205  1  0.50000000  0.23360000  0.16000000  1.0
  C  C206  1  0.50000000  0.21950000  0.21100000  1.0
  C  C207  1  0.00000000  0.84230000  0.09790000  1.0
  C  C208  1  0.37530000  0.01960000  0.73290000  1.0
  C  C209  1  0.61840000  0.28460000  0.98590000  1.0
  C  C210  1  0.38830000  0.03080000  0.27960000  1.0
  C  C211  1  0.50000000  0.27760000  0.01000000  1.0
  C  C212  1  0.50000000  0.10710000  0.29830000  1.0
  C  C213  1  0.50000000  0.56910000  0.48950000  1.0
  C  C214  1  0.38680000  0.87810000  0.24510000  1.0
  C  C215  1  0.50000000  0.47650000  0.43720000  1.0
  C  C216  1  0.00000000  0.45580000  0.23380000  1.0
  C  C217  1  0.38210000  0.29700000  0.93690000  1.0
  C  C218  1  0.50000000  0.47520000  0.48710000  1.0
  C  C219  1  0.11920000  0.67140000  0.73170000  1.0
  C  C220  1  0.62470000  0.98040000  0.26710000  1.0
  C  C221  1  0.61790000  0.70300000  0.06310000  1.0
  C  C222  1  0.73950000  0.80430000  0.21970000  1.0
  C  C223  1  0.60340000  0.74830000  0.91440000  1.0
  C  C224  1  0.50000000  0.52350000  0.56280000  1.0
  C  C225  1  0.88210000  0.79700000  0.56310000  1.0
  C  C226  1  0.61840000  0.71540000  0.01410000  1.0
  C  C227  1  0.50000000  0.26490000  0.06230000  1.0
  C  C228  1  0.38080000  0.17140000  0.76830000  1.0
  C  C229  1  0.61920000  0.82860000  0.23170000  1.0
  C  C230  1  0.00000000  0.11080000  0.93430000  1.0
  C  C231  1  0.00000000  0.26640000  0.66000000  1.0
  C  C232  1  0.11920000  0.32860000  0.26830000  1.0
  C  C233  1  0.88210000  0.20300000  0.43690000  1.0
  C  C234  1  0.61320000  0.87810000  0.24510000  1.0
  C  C235  1  0.50000000  0.43350000  0.41080000  1.0
  O  O236  1  0.34310000  0.67660000  0.72830000  1.0
  O  O237  1  0.27340000  0.76100000  0.20150000  1.0
  O  O238  1  0.72660000  0.23900000  0.79850000  1.0
  O  O239  1  0.77340000  0.26100000  0.29850000  1.0
  O  O240  1  0.88770000  0.37000000  0.80034000  1.0
  O  O241  1  0.34410000  0.21384000  0.43195000  1.0
  O  O242  1  0.61230000  0.87000000  0.69966000  1.0
  O  O243  1  0.50000000  0.30600000  0.42750000  1.0
  O  O244  1  0.61230000  0.13000000  0.30034000  1.0
  O  O245  1  0.84410000  0.71384000  0.06805000  1.0
  O  O246  1  0.74180000  0.68650000  0.13302000  1.0
  O  O247  1  0.15590000  0.71384000  0.06805000  1.0
  O  O248  1  0.22660000  0.73900000  0.70150000  1.0
  O  O249  1  0.24180000  0.81350000  0.63302000  1.0
  O  O250  1  0.24180000  0.18650000  0.36698000  1.0
  O  O251  1  0.50000000  0.23536000  0.33224000  1.0
  O  O252  1  0.25820000  0.31350000  0.86698000  1.0
  O  O253  1  0.39430000  0.20970000  0.23040000  1.0
  O  O254  1  0.50000000  0.34730000  0.36090000  1.0
  O  O255  1  0.34310000  0.32340000  0.27170000  1.0
  O  O256  1  0.50000000  0.69400000  0.57250000  1.0
  O  O257  1  0.88770000  0.63000000  0.19966000  1.0
  O  O258  1  0.34410000  0.78616000  0.56805000  1.0
  O  O259  1  0.27340000  0.23900000  0.79850000  1.0
  O  O260  1  0.84310000  0.82340000  0.22830000  1.0
  O  O261  1  0.75820000  0.18650000  0.36698000  1.0
  O  O262  1  0.77340000  0.73900000  0.70150000  1.0
  O  O263  1  0.50000000  0.76464000  0.66776000  1.0
  O  O264  1  0.15590000  0.28616000  0.93195000  1.0
  O  O265  1  0.22660000  0.26100000  0.29850000  1.0
  O  O266  1  0.15690000  0.17660000  0.77170000  1.0
  O  O267  1  0.50000000  0.65270000  0.63910000  1.0
  O  O268  1  0.72660000  0.76100000  0.20150000  1.0
  O  O269  1  0.65690000  0.67660000  0.72830000  1.0
  O  O270  1  0.89430000  0.29030000  0.73040000  1.0
  O  O271  1  0.38770000  0.13000000  0.30034000  1.0
  O  O272  1  0.38770000  0.87000000  0.69966000  1.0
  O  O273  1  0.00000000  0.26464000  0.83224000  1.0
  O  O274  1  0.00000000  0.15270000  0.86090000  1.0
  O  O275  1  0.75820000  0.81350000  0.63302000  1.0
  O  O276  1  0.84410000  0.28616000  0.93195000  1.0
  O  O277  1  0.00000000  0.19400000  0.92750000  1.0
  O  O278  1  0.74180000  0.31350000  0.86698000  1.0
  O  O279  1  0.00000000  0.73536000  0.16776000  1.0
  O  O280  1  0.65690000  0.32340000  0.27170000  1.0
  O  O281  1  0.65590000  0.78616000  0.56805000  1.0
  O  O282  1  0.11230000  0.37000000  0.80034000  1.0
  O  O283  1  0.11230000  0.63000000  0.19966000  1.0
  O  O284  1  0.00000000  0.84730000  0.13910000  1.0
  O  O285  1  0.00000000  0.80600000  0.07250000  1.0
  O  O286  1  0.65590000  0.21384000  0.43195000  1.0
  O  O287  1  0.39430000  0.79030000  0.76960000  1.0
  O  O288  1  0.25820000  0.68650000  0.13302000  1.0
  O  O289  1  0.60570000  0.20970000  0.23040000  1.0
  O  O290  1  0.15690000  0.82340000  0.22830000  1.0
  O  O291  1  0.10570000  0.70970000  0.26960000  1.0
  O  O292  1  0.84310000  0.17660000  0.77170000  1.0
  O  O293  1  0.89430000  0.70970000  0.26960000  1.0
  O  O294  1  0.60570000  0.79030000  0.76960000  1.0
  O  O295  1  0.10570000  0.29030000  0.73040000  1.0
