# generated using pymatgen
data_Zr3H30(C2O)16
_symmetry_space_group_name_H-M   'P 1'
_cell_length_a   24.34800000
_cell_length_b   24.34800000
_cell_length_c   14.91800000
_cell_angle_alpha   90.00000000
_cell_angle_beta   90.00000000
_cell_angle_gamma   90.00000000
_symmetry_Int_Tables_number   1
_chemical_formula_structural   Zr3H30(C2O)16
_chemical_formula_sum   'Zr12 H120 C128 O64'
_cell_volume   8843.76490147
_cell_formula_units_Z   4
loop_
 _symmetry_equiv_pos_site_id
 _symmetry_equiv_pos_as_xyz
  1  'x, y, z'
loop_
 _atom_site_type_symbol
 _atom_site_label
 _atom_site_symmetry_multiplicity
 _atom_site_fract_x
 _atom_site_fract_y
 _atom_site_fract_z
 _atom_site_occupancy
  Zr  Zr0  1  0.99943000  0.06919000  0.11770000  1.0
  Zr  Zr1  1  0.99952000  0.93226000  0.12061000  1.0
  Zr  Zr2  1  0.99930000  0.06759000  0.89045000  1.0
  Zr  Zr3  1  0.99931000  0.93078000  0.89223000  1.0
  Zr  Zr4  1  0.08334000  0.99958000  0.00509000  1.0
  Zr  Zr5  1  0.91556000  0.99954000  0.00543000  1.0
  Zr  Zr6  1  0.42930000  0.49927000  0.39338000  1.0
  Zr  Zr7  1  0.56617000  0.49867000  0.39040000  1.0
  Zr  Zr8  1  0.43092000  0.49933000  0.62052000  1.0
  Zr  Zr9  1  0.56771000  0.49899000  0.61871000  1.0
  Zr  Zr10  1  0.49863000  0.41506000  0.50589000  1.0
  Zr  Zr11  1  0.49922000  0.58296000  0.50552000  1.0
  H  H12  1  0.92387000  0.00098000  0.18598000  1.0
  H  H13  1  0.06941000  0.88744000  0.00629000  1.0
  H  H14  1  0.92370000  0.99893000  0.82473000  1.0
  H  H15  1  0.06975000  0.11184000  0.00384000  1.0
  H  H16  1  0.00275000  0.82940000  0.08161000  1.0
  H  H17  1  0.98341000  0.82919000  0.93432000  1.0
  H  H18  1  0.03075000  0.94886000  0.72860000  1.0
  H  H19  1  0.03074000  0.04844000  0.72727000  1.0
  H  H20  1  0.99152000  0.16851000  0.94014000  1.0
  H  H21  1  0.00155000  0.16859000  0.17764000  1.0
  H  H22  1  0.02864000  0.04991000  0.28178000  1.0
  H  H23  1  0.03201000  0.94975000  0.28380000  1.0
  H  H24  1  0.49767000  0.57453000  0.32497000  1.0
  H  H25  1  0.61081000  0.42873000  0.50467000  1.0
  H  H26  1  0.49967000  0.57468000  0.68628000  1.0
  H  H27  1  0.38649000  0.42885000  0.50724000  1.0
  H  H28  1  0.66894000  0.49518000  0.43003000  1.0
  H  H29  1  0.66921000  0.51612000  0.57688000  1.0
  H  H30  1  0.54943000  0.46745000  0.78227000  1.0
  H  H31  1  0.45022000  0.46818000  0.78383000  1.0
  H  H32  1  0.33003000  0.50759000  0.57081000  1.0
  H  H33  1  0.32981000  0.49736000  0.33384000  1.0
  H  H34  1  0.44867000  0.47042000  0.22913000  1.0
  H  H35  1  0.54852000  0.46604000  0.22728000  1.0
  H  H36  1  0.23449000  0.09856000  0.07992000  1.0
  H  H37  1  0.12461000  0.16144000  0.28101000  1.0
  H  H38  1  0.39618000  0.26378000  0.42963000  1.0
  H  H39  1  0.34086000  0.37564000  0.22561000  1.0
  H  H40  1  0.19585000  0.22507000  0.33259000  1.0
  H  H41  1  0.33166000  0.19386000  0.37418000  1.0
  H  H42  1  0.31393000  0.17308000  0.04333000  1.0
  H  H43  1  0.33981000  0.12105000  0.11867000  1.0
  H  H44  1  0.35127000  0.19240000  0.14232000  1.0
  H  H45  1  0.29466000  0.32125000  0.08767000  1.0
  H  H46  1  0.24204000  0.34720000  0.16179000  1.0
  H  H47  1  0.23976000  0.27735000  0.12355000  1.0
  H  H48  1  0.76178000  0.90493000  0.09129000  1.0
  H  H49  1  0.88042000  0.82467000  0.26020000  1.0
  H  H50  1  0.59742000  0.73692000  0.41873000  1.0
  H  H51  1  0.66932000  0.61612000  0.24402000  1.0
  H  H52  1  0.80970000  0.76165000  0.31420000  1.0
  H  H53  1  0.66115000  0.80664000  0.35966000  1.0
  H  H54  1  0.67661000  0.83802000  0.05788000  1.0
  H  H55  1  0.65781000  0.88437000  0.14735000  1.0
  H  H56  1  0.64502000  0.81199000  0.15791000  1.0
  H  H57  1  0.71871000  0.66178000  0.10497000  1.0
  H  H58  1  0.77067000  0.64770000  0.18829000  1.0
  H  H59  1  0.76755000  0.71365000  0.13421000  1.0
  H  H60  1  0.87747000  0.16506000  0.73754000  1.0
  H  H61  1  0.76269000  0.10018000  0.92937000  1.0
  H  H62  1  0.68058000  0.38196000  0.74530000  1.0
  H  H63  1  0.57828000  0.25844000  0.62407000  1.0
  H  H64  1  0.69179000  0.16353000  0.87346000  1.0
  H  H65  1  0.74379000  0.31128000  0.79763000  1.0
  H  H66  1  0.82852000  0.21052000  0.60038000  1.0
  H  H67  1  0.84367000  0.26602000  0.67683000  1.0
  H  H68  1  0.77649000  0.25949000  0.62741000  1.0
  H  H69  1  0.63051000  0.16551000  0.59802000  1.0
  H  H70  1  0.59839000  0.15795000  0.70616000  1.0
  H  H71  1  0.66961000  0.14055000  0.69109000  1.0
  H  H72  1  0.23979000  0.91993000  0.88713000  1.0
  H  H73  1  0.11640000  0.81782000  0.76514000  1.0
  H  H74  1  0.39857000  0.73606000  0.58168000  1.0
  H  H75  1  0.33353000  0.62110000  0.77307000  1.0
  H  H76  1  0.18717000  0.75473000  0.71264000  1.0
  H  H77  1  0.33502000  0.80684000  0.63742000  1.0
  H  H78  1  0.33270000  0.86749000  0.91326000  1.0
  H  H79  1  0.34032000  0.90012000  0.80553000  1.0
  H  H80  1  0.35779000  0.82886000  0.81978000  1.0
  H  H81  1  0.28780000  0.66990000  0.91010000  1.0
  H  H82  1  0.23244000  0.65468000  0.83340000  1.0
  H  H83  1  0.23878000  0.72186000  0.88293000  1.0
  H  H84  1  0.11894000  0.16921000  0.74255000  1.0
  H  H85  1  0.23867000  0.09058000  0.91145000  1.0
  H  H86  1  0.40590000  0.26057000  0.59765000  1.0
  H  H87  1  0.33241000  0.37920000  0.77453000  1.0
  H  H88  1  0.30902000  0.15565000  0.85907000  1.0
  H  H89  1  0.34101000  0.19044000  0.65128000  1.0
  H  H90  1  0.15135000  0.27244000  0.69891000  1.0
  H  H91  1  0.16516000  0.22428000  0.60958000  1.0
  H  H92  1  0.21733000  0.27134000  0.64482000  1.0
  H  H93  1  0.22974000  0.34712000  0.82390000  1.0
  H  H94  1  0.28005000  0.33198000  0.90942000  1.0
  H  H95  1  0.23179000  0.28050000  0.87592000  1.0
  H  H96  1  0.88137000  0.82698000  0.74936000  1.0
  H  H97  1  0.76031000  0.90343000  0.91846000  1.0
  H  H98  1  0.59739000  0.73728000  0.59059000  1.0
  H  H99  1  0.66759000  0.61748000  0.76898000  1.0
  H  H100  1  0.69029000  0.83926000  0.86158000  1.0
  H  H101  1  0.66138000  0.80704000  0.64881000  1.0
  H  H102  1  0.84923000  0.72453000  0.70091000  1.0
  H  H103  1  0.83660000  0.77412000  0.61320000  1.0
  H  H104  1  0.78390000  0.72671000  0.64488000  1.0
  H  H105  1  0.76914000  0.64887000  0.82396000  1.0
  H  H106  1  0.71739000  0.66370000  0.90731000  1.0
  H  H107  1  0.76646000  0.71515000  0.87693000  1.0
  H  H108  1  0.23727000  0.90571000  0.09384000  1.0
  H  H109  1  0.11966000  0.83248000  0.27294000  1.0
  H  H110  1  0.31841000  0.61885000  0.26249000  1.0
  H  H111  1  0.41013000  0.73846000  0.41303000  1.0
  H  H112  1  0.18976000  0.76921000  0.32813000  1.0
  H  H113  1  0.25659000  0.69073000  0.20901000  1.0
  H  H114  1  0.34134000  0.88486000  0.14637000  1.0
  H  H115  1  0.32061000  0.83531000  0.06273000  1.0
  H  H116  1  0.35343000  0.81287000  0.16363000  1.0
  H  H117  1  0.39146000  0.84177000  0.34961000  1.0
  H  H118  1  0.34928000  0.82729000  0.44643000  1.0
  H  H119  1  0.31924000  0.85706000  0.34805000  1.0
  H  H120  1  0.76020000  0.08813000  0.09894000  1.0
  H  H121  1  0.87991000  0.18081000  0.24773000  1.0
  H  H122  1  0.66443000  0.37816000  0.23610000  1.0
  H  H123  1  0.59384000  0.26135000  0.41937000  1.0
  H  H124  1  0.80790000  0.24248000  0.30135000  1.0
  H  H125  1  0.72793000  0.30823000  0.18105000  1.0
  H  H126  1  0.65711000  0.10634000  0.16328000  1.0
  H  H127  1  0.67085000  0.14847000  0.06611000  1.0
  H  H128  1  0.64134000  0.17845000  0.16476000  1.0
  H  H129  1  0.61525000  0.15718000  0.36923000  1.0
  H  H130  1  0.66574000  0.17898000  0.45066000  1.0
  H  H131  1  0.68708000  0.14546000  0.34970000  1.0
  C  C132  1  0.12729000  0.08849000  0.13887000  1.0
  C  C133  1  0.87281000  0.90703000  0.13372000  1.0
  C  C134  1  0.12690000  0.91100000  0.14015000  1.0
  C  C135  1  0.87223000  0.09241000  0.13247000  1.0
  C  C136  1  0.87227000  0.09144000  0.87627000  1.0
  C  C137  1  0.12630000  0.91051000  0.86970000  1.0
  C  C138  1  0.87242000  0.90698000  0.87747000  1.0
  C  C139  1  0.12680000  0.08821000  0.86981000  1.0
  C  C140  1  0.40973000  0.37159000  0.37135000  1.0
  C  C141  1  0.59163000  0.62519000  0.37611000  1.0
  C  C142  1  0.58718000  0.37130000  0.37087000  1.0
  C  C143  1  0.40636000  0.62648000  0.37858000  1.0
  C  C144  1  0.40729000  0.62640000  0.63459000  1.0
  C  C145  1  0.58774000  0.37198000  0.64123000  1.0
  C  C146  1  0.59134000  0.62583000  0.63465000  1.0
  C  C147  1  0.41030000  0.37188000  0.64191000  1.0
  C  C148  1  0.25728000  0.19991000  0.23668000  1.0
  C  C149  1  0.26743000  0.16295000  0.16453000  1.0
  C  C150  1  0.22597000  0.12560000  0.13586000  1.0
  C  C151  1  0.17345000  0.12414000  0.17604000  1.0
  C  C152  1  0.16422000  0.16063000  0.24804000  1.0
  C  C153  1  0.20527000  0.19738000  0.27790000  1.0
  C  C154  1  0.29841000  0.24338000  0.26692000  1.0
  C  C155  1  0.33349000  0.23320000  0.34044000  1.0
  C  C156  1  0.37082000  0.27342000  0.37218000  1.0
  C  C157  1  0.37413000  0.32590000  0.33242000  1.0
  C  C158  1  0.33951000  0.33586000  0.25812000  1.0
  C  C159  1  0.30240000  0.29566000  0.22490000  1.0
  C  C160  1  0.32123000  0.16263000  0.11481000  1.0
  C  C161  1  0.26760000  0.31084000  0.14512000  1.0
  C  C162  1  0.74366000  0.79562000  0.23518000  1.0
  C  C163  1  0.73090000  0.83724000  0.17131000  1.0
  C  C164  1  0.77239000  0.87409000  0.14067000  1.0
  C  C165  1  0.82726000  0.87055000  0.17090000  1.0
  C  C166  1  0.83905000  0.82938000  0.23474000  1.0
  C  C167  1  0.79825000  0.79297000  0.26615000  1.0
  C  C168  1  0.70257000  0.75247000  0.26684000  1.0
  C  C169  1  0.66312000  0.76529000  0.33317000  1.0
  C  C170  1  0.62643000  0.72511000  0.36726000  1.0
  C  C171  1  0.62800000  0.67023000  0.33692000  1.0
  C  C172  1  0.66699000  0.65768000  0.26972000  1.0
  C  C173  1  0.70352000  0.69761000  0.23433000  1.0
  C  C174  1  0.67431000  0.84294000  0.13180000  1.0
  C  C175  1  0.74247000  0.67956000  0.16151000  1.0
  C  C176  1  0.74258000  0.20119000  0.77168000  1.0
  C  C177  1  0.79611000  0.20021000  0.73338000  1.0
  C  C178  1  0.83693000  0.16420000  0.76750000  1.0
  C  C179  1  0.82644000  0.12732000  0.83854000  1.0
  C  C180  1  0.77283000  0.12746000  0.87455000  1.0
  C  C181  1  0.73194000  0.16392000  0.84222000  1.0
  C  C182  1  0.69908000  0.24265000  0.74230000  1.0
  C  C183  1  0.70762000  0.29874000  0.76062000  1.0
  C  C184  1  0.67095000  0.33953000  0.73036000  1.0
  C  C185  1  0.62374000  0.32642000  0.67968000  1.0
  C  C186  1  0.61409000  0.27015000  0.66273000  1.0
  C  C187  1  0.65071000  0.22844000  0.69356000  1.0
  C  C188  1  0.81171000  0.23630000  0.65533000  1.0
  C  C189  1  0.63690000  0.16975000  0.67129000  1.0
  C  C190  1  0.25573000  0.79938000  0.76833000  1.0
  C  C191  1  0.26988000  0.84766000  0.81736000  1.0
  C  C192  1  0.22812000  0.88420000  0.84826000  1.0
  C  C193  1  0.17186000  0.87456000  0.83116000  1.0
  C  C194  1  0.15882000  0.82744000  0.78021000  1.0
  C  C195  1  0.19965000  0.79084000  0.74984000  1.0
  C  C196  1  0.29725000  0.75593000  0.73895000  1.0
  C  C197  1  0.33464000  0.76667000  0.66858000  1.0
  C  C198  1  0.37120000  0.72585000  0.63635000  1.0
  C  C199  1  0.37136000  0.67222000  0.67227000  1.0
  C  C200  1  0.33439000  0.66165000  0.74316000  1.0
  C  C201  1  0.29826000  0.70239000  0.77719000  1.0
  C  C202  1  0.32853000  0.86144000  0.83991000  1.0
  C  C203  1  0.26208000  0.68670000  0.85506000  1.0
  C  C204  1  0.25546000  0.20070000  0.76997000  1.0
  C  C205  1  0.20074000  0.20308000  0.73683000  1.0
  C  C206  1  0.16046000  0.16549000  0.76799000  1.0
  C  C207  1  0.17246000  0.12429000  0.83180000  1.0
  C  C208  1  0.22726000  0.12125000  0.86237000  1.0
  C  C209  1  0.26785000  0.15870000  0.83208000  1.0
  C  C210  1  0.29858000  0.24342000  0.74460000  1.0
  C  C211  1  0.33911000  0.23128000  0.67983000  1.0
  C  C212  1  0.37642000  0.27175000  0.64877000  1.0
  C  C213  1  0.37460000  0.32625000  0.68095000  1.0
  C  C214  1  0.33502000  0.33796000  0.74760000  1.0
  C  C215  1  0.29771000  0.29770000  0.77982000  1.0
  C  C216  1  0.18303000  0.24530000  0.66885000  1.0
  C  C217  1  0.25739000  0.31492000  0.85113000  1.0
  C  C218  1  0.74462000  0.79564000  0.77175000  1.0
  C  C219  1  0.79965000  0.79348000  0.74020000  1.0
  C  C220  1  0.83967000  0.83036000  0.77409000  1.0
  C  C221  1  0.82712000  0.87067000  0.83912000  1.0
  C  C222  1  0.77208000  0.87343000  0.86849000  1.0
  C  C223  1  0.73171000  0.83657000  0.83553000  1.0
  C  C224  1  0.70185000  0.75335000  0.74343000  1.0
  C  C225  1  0.66268000  0.76599000  0.67666000  1.0
  C  C226  1  0.62596000  0.72576000  0.64289000  1.0
  C  C227  1  0.62721000  0.67109000  0.67420000  1.0
  C  C228  1  0.66557000  0.65887000  0.74248000  1.0
  C  C229  1  0.70217000  0.69882000  0.77744000  1.0
  C  C230  1  0.81798000  0.75225000  0.67103000  1.0
  C  C231  1  0.74114000  0.68101000  0.85037000  1.0
  C  C232  1  0.25536000  0.79993000  0.24476000  1.0
  C  C233  1  0.26802000  0.83969000  0.17769000  1.0
  C  C234  1  0.22686000  0.87660000  0.14610000  1.0
  C  C235  1  0.17245000  0.87515000  0.17891000  1.0
  C  C236  1  0.16074000  0.83572000  0.24568000  1.0
  C  C237  1  0.20115000  0.79904000  0.27758000  1.0
  C  C238  1  0.29639000  0.75738000  0.27888000  1.0
  C  C239  1  0.28997000  0.70208000  0.25330000  1.0
  C  C240  1  0.32584000  0.66064000  0.28409000  1.0
  C  C241  1  0.37004000  0.67241000  0.34231000  1.0
  C  C242  1  0.37690000  0.72782000  0.36799000  1.0
  C  C243  1  0.34072000  0.77000000  0.33785000  1.0
  C  C244  1  0.32411000  0.84315000  0.13572000  1.0
  C  C245  1  0.35044000  0.82735000  0.37200000  1.0
  C  C246  1  0.74121000  0.20215000  0.23241000  1.0
  C  C247  1  0.72860000  0.15758000  0.17392000  1.0
  C  C248  1  0.77084000  0.12154000  0.14363000  1.0
  C  C249  1  0.82631000  0.12872000  0.16878000  1.0
  C  C250  1  0.83808000  0.17314000  0.22655000  1.0
  C  C251  1  0.79657000  0.20891000  0.25743000  1.0
  C  C252  1  0.69856000  0.24305000  0.26655000  1.0
  C  C253  1  0.69863000  0.29697000  0.23250000  1.0
  C  C254  1  0.66182000  0.33728000  0.26431000  1.0
  C  C255  1  0.62304000  0.32574000  0.33218000  1.0
  C  C256  1  0.62240000  0.27161000  0.36622000  1.0
  C  C257  1  0.65947000  0.23056000  0.33474000  1.0
  C  C258  1  0.67115000  0.14742000  0.14054000  1.0
  C  C259  1  0.65696000  0.17480000  0.37805000  1.0
  O  O260  1  0.07714000  0.09999000  0.16382000  1.0
  O  O261  1  0.13882000  0.05018000  0.08021000  1.0
  O  O262  1  0.92318000  0.89490000  0.15608000  1.0
  O  O263  1  0.86062000  0.94759000  0.07960000  1.0
  O  O264  1  0.07668000  0.89976000  0.16456000  1.0
  O  O265  1  0.13873000  0.94913000  0.08127000  1.0
  O  O266  1  0.92248000  0.10469000  0.15551000  1.0
  O  O267  1  0.86036000  0.05169000  0.07852000  1.0
  O  O268  1  0.99422000  0.06659000  0.25933000  1.0
  O  O269  1  0.00161000  0.15603000  0.11439000  1.0
  O  O270  1  0.99424000  0.94417000  0.26099000  1.0
  O  O271  1  0.00216000  0.84650000  0.14165000  1.0
  O  O272  1  0.05016000  0.00074000  0.13626000  1.0
  O  O273  1  0.94997000  0.00069000  0.13499000  1.0
  O  O274  1  0.92253000  0.10341000  0.85278000  1.0
  O  O275  1  0.86036000  0.05136000  0.93150000  1.0
  O  O276  1  0.07601000  0.89824000  0.84723000  1.0
  O  O277  1  0.13823000  0.94980000  0.92646000  1.0
  O  O278  1  0.92270000  0.89509000  0.85449000  1.0
  O  O279  1  0.86029000  0.94722000  0.93229000  1.0
  O  O280  1  0.07653000  0.09948000  0.84531000  1.0
  O  O281  1  0.13861000  0.04998000  0.92856000  1.0
  O  O282  1  0.99408000  0.05967000  0.74934000  1.0
  O  O283  1  0.00213000  0.15413000  0.88055000  1.0
  O  O284  1  0.99398000  0.93831000  0.75104000  1.0
  O  O285  1  0.00314000  0.84424000  0.88186000  1.0
  O  O286  1  0.94978000  0.99908000  0.87573000  1.0
  O  O287  1  0.04997000  0.99908000  0.87407000  1.0
  O  O288  1  0.95055000  0.07883000  0.00404000  1.0
  O  O289  1  0.04660000  0.92108000  0.00638000  1.0
  O  O290  1  0.04690000  0.07822000  0.00397000  1.0
  O  O291  1  0.95100000  0.92034000  0.00665000  1.0
  O  O292  1  0.39851000  0.42183000  0.34671000  1.0
  O  O293  1  0.44771000  0.35975000  0.43050000  1.0
  O  O294  1  0.60341000  0.57474000  0.35395000  1.0
  O  O295  1  0.55148000  0.63769000  0.43096000  1.0
  O  O296  1  0.59849000  0.42149000  0.34640000  1.0
  O  O297  1  0.54902000  0.35955000  0.42974000  1.0
  O  O298  1  0.39398000  0.57627000  0.35557000  1.0
  O  O299  1  0.44715000  0.63829000  0.43247000  1.0
  O  O300  1  0.43170000  0.50466000  0.25175000  1.0
  O  O301  1  0.34246000  0.49723000  0.39704000  1.0
  O  O302  1  0.55433000  0.50380000  0.24997000  1.0
  O  O303  1  0.65198000  0.49591000  0.36990000  1.0
  O  O304  1  0.49755000  0.44828000  0.37476000  1.0
  O  O305  1  0.49792000  0.54849000  0.37603000  1.0
  O  O306  1  0.39525000  0.57616000  0.65809000  1.0
  O  O307  1  0.44742000  0.63826000  0.57939000  1.0
  O  O308  1  0.60007000  0.42224000  0.66374000  1.0
  O  O309  1  0.54840000  0.36010000  0.58450000  1.0
  O  O310  1  0.60307000  0.57552000  0.65768000  1.0
  O  O311  1  0.55153000  0.63806000  0.57903000  1.0
  O  O312  1  0.39910000  0.42220000  0.66625000  1.0
  O  O313  1  0.44823000  0.35995000  0.58271000  1.0
  O  O314  1  0.43874000  0.50473000  0.76164000  1.0
  O  O315  1  0.34436000  0.49656000  0.63021000  1.0
  O  O316  1  0.56047000  0.50410000  0.75996000  1.0
  O  O317  1  0.65431000  0.49503000  0.62805000  1.0
  O  O318  1  0.49953000  0.54867000  0.63519000  1.0
  O  O319  1  0.49929000  0.44849000  0.63687000  1.0
  O  O320  1  0.41983000  0.54816000  0.50700000  1.0
  O  O321  1  0.57722000  0.45161000  0.50461000  1.0
  O  O322  1  0.42011000  0.45172000  0.50705000  1.0
  O  O323  1  0.57831000  0.54729000  0.50428000  1.0
