# generated using pymatgen
data_Mn3CrH21C15(N2O)6
_symmetry_space_group_name_H-M   'P 1'
_cell_length_a   8.15300000
_cell_length_b   13.68020000
_cell_length_c   13.68020000
_cell_angle_alpha   120.00000000
_cell_angle_beta   90.00000000
_cell_angle_gamma   90.00000000
_symmetry_Int_Tables_number   1
_chemical_formula_structural   Mn3CrH21C15(N2O)6
_chemical_formula_sum   'Mn6 Cr2 H42 C30 N24 O12'
_cell_volume   1321.39593776
_cell_formula_units_Z   2
loop_
 _symmetry_equiv_pos_site_id
 _symmetry_equiv_pos_as_xyz
  1  'x, y, z'
loop_
 _atom_site_type_symbol
 _atom_site_label
 _atom_site_symmetry_multiplicity
 _atom_site_fract_x
 _atom_site_fract_y
 _atom_site_fract_z
 _atom_site_occupancy
  Mn  Mn0  1  0.20692000  0.33427000  0.03788000  1.0
  Mn  Mn1  1  0.20692000  0.70361000  0.66573000  1.0
  Mn  Mn2  1  0.20692000  0.96212000  0.29639000  1.0
  Mn  Mn3  1  0.70692000  0.66573000  0.96212000  1.0
  Mn  Mn4  1  0.70692000  0.29639000  0.33427000  1.0
  Mn  Mn5  1  0.70692000  0.03788000  0.70361000  1.0
  Cr  Cr6  1  0.58960000  0.66666667  0.33333333  1.0
  Cr  Cr7  1  0.08960000  0.33333333  0.66666667  1.0
  H  H8  1  0.60950000  0.25430000  0.84810000  1.0
  H  H9  1  0.60580000  0.19720000  0.91420000  1.0
  H  H10  1  0.86920000  0.28580000  0.86600000  1.0
  H  H11  1  0.72410000  0.39540000  0.04340000  1.0
  H  H12  1  0.81630000  0.32040000  0.08280000  1.0
  H  H13  1  0.96020000  0.48020000  0.13320000  1.0
  H  H14  1  0.96860000  0.45660000  0.01720000  1.0
  H  H15  1  0.60950000  0.59380000  0.74570000  1.0
  H  H16  1  0.60580000  0.71700000  0.80280000  1.0
  H  H17  1  0.86920000  0.58020000  0.71420000  1.0
  H  H18  1  0.72410000  0.64800000  0.60460000  1.0
  H  H19  1  0.81630000  0.76240000  0.67960000  1.0
  H  H20  1  0.96020000  0.65300000  0.51980000  1.0
  H  H21  1  0.96860000  0.56060000  0.54340000  1.0
  H  H22  1  0.60950000  0.15190000  0.40620000  1.0
  H  H23  1  0.60580000  0.08580000  0.28300000  1.0
  H  H24  1  0.86920000  0.13400000  0.41980000  1.0
  H  H25  1  0.72410000  0.95660000  0.35200000  1.0
  H  H26  1  0.81630000  0.91720000  0.23760000  1.0
  H  H27  1  0.96020000  0.86680000  0.34700000  1.0
  H  H28  1  0.96860000  0.98280000  0.43940000  1.0
  H  H29  1  0.10950000  0.74570000  0.15190000  1.0
  H  H30  1  0.10580000  0.80280000  0.08580000  1.0
  H  H31  1  0.36920000  0.71420000  0.13400000  1.0
  H  H32  1  0.22410000  0.60460000  0.95660000  1.0
  H  H33  1  0.31630000  0.67960000  0.91720000  1.0
  H  H34  1  0.46020000  0.51980000  0.86680000  1.0
  H  H35  1  0.46860000  0.54340000  0.98280000  1.0
  H  H36  1  0.10950000  0.40620000  0.25430000  1.0
  H  H37  1  0.10580000  0.28300000  0.19720000  1.0
  H  H38  1  0.36920000  0.41980000  0.28580000  1.0
  H  H39  1  0.22410000  0.35200000  0.39540000  1.0
  H  H40  1  0.31630000  0.23760000  0.32040000  1.0
  H  H41  1  0.46020000  0.34700000  0.48020000  1.0
  H  H42  1  0.46860000  0.43940000  0.45660000  1.0
  H  H43  1  0.10950000  0.84810000  0.59380000  1.0
  H  H44  1  0.10580000  0.91420000  0.71700000  1.0
  H  H45  1  0.36920000  0.86600000  0.58020000  1.0
  H  H46  1  0.22410000  0.04340000  0.64800000  1.0
  H  H47  1  0.31630000  0.08280000  0.76240000  1.0
  H  H48  1  0.46020000  0.13320000  0.65300000  1.0
  H  H49  1  0.46860000  0.01720000  0.56060000  1.0
  C  C50  1  0.43910000  0.55660000  0.20260000  1.0
  C  C51  1  0.82660000  0.25410000  0.91120000  1.0
  C  C52  1  0.82210000  0.35070000  0.03220000  1.0
  C  C53  1  0.72110000  0.67950000  0.20980000  1.0
  C  C54  1  0.94480000  0.15860000  0.89200000  1.0
  C  C55  1  0.43910000  0.64600000  0.44340000  1.0
  C  C56  1  0.82660000  0.65710000  0.74590000  1.0
  C  C57  1  0.82210000  0.68150000  0.64930000  1.0
  C  C58  1  0.72110000  0.53030000  0.32050000  1.0
  C  C59  1  0.94480000  0.73340000  0.84140000  1.0
  C  C60  1  0.43910000  0.79740000  0.35400000  1.0
  C  C61  1  0.82660000  0.08880000  0.34290000  1.0
  C  C62  1  0.82210000  0.96780000  0.31850000  1.0
  C  C63  1  0.72110000  0.79020000  0.46970000  1.0
  C  C64  1  0.94480000  0.10800000  0.26660000  1.0
  C  C65  1  0.93910000  0.44340000  0.79740000  1.0
  C  C66  1  0.32660000  0.74590000  0.08880000  1.0
  C  C67  1  0.32210000  0.64930000  0.96780000  1.0
  C  C68  1  0.22110000  0.32050000  0.79020000  1.0
  C  C69  1  0.44480000  0.84140000  0.10800000  1.0
  C  C70  1  0.93910000  0.35400000  0.55660000  1.0
  C  C71  1  0.32660000  0.34290000  0.25410000  1.0
  C  C72  1  0.32210000  0.31850000  0.35070000  1.0
  C  C73  1  0.22110000  0.46970000  0.67950000  1.0
  C  C74  1  0.44480000  0.26660000  0.15860000  1.0
  C  C75  1  0.93910000  0.20260000  0.64600000  1.0
  C  C76  1  0.32660000  0.91120000  0.65710000  1.0
  C  C77  1  0.32210000  0.03220000  0.68150000  1.0
  C  C78  1  0.22110000  0.20980000  0.53030000  1.0
  C  C79  1  0.44480000  0.89200000  0.73340000  1.0
  N  N80  1  0.66470000  0.20710000  0.86420000  1.0
  N  N81  1  0.35360000  0.49550000  0.12940000  1.0
  N  N82  1  0.76880000  0.68040000  0.12990000  1.0
  N  N83  1  0.96820000  0.42450000  0.06080000  1.0
  N  N84  1  0.66470000  0.65710000  0.79290000  1.0
  N  N85  1  0.35360000  0.63390000  0.50450000  1.0
  N  N86  1  0.76880000  0.44950000  0.31960000  1.0
  N  N87  1  0.96820000  0.63630000  0.57550000  1.0
  N  N88  1  0.66470000  0.13580000  0.34290000  1.0
  N  N89  1  0.35360000  0.87060000  0.36610000  1.0
  N  N90  1  0.76880000  0.87010000  0.55050000  1.0
  N  N91  1  0.96820000  0.93920000  0.36370000  1.0
  N  N92  1  0.16470000  0.79290000  0.13580000  1.0
  N  N93  1  0.85360000  0.50450000  0.87060000  1.0
  N  N94  1  0.26880000  0.31960000  0.87010000  1.0
  N  N95  1  0.46820000  0.57550000  0.93920000  1.0
  N  N96  1  0.16470000  0.34290000  0.20710000  1.0
  N  N97  1  0.85360000  0.36610000  0.49550000  1.0
  N  N98  1  0.26880000  0.55050000  0.68040000  1.0
  N  N99  1  0.46820000  0.36370000  0.42450000  1.0
  N  N100  1  0.16470000  0.86420000  0.65710000  1.0
  N  N101  1  0.85360000  0.12940000  0.63390000  1.0
  N  N102  1  0.26880000  0.12990000  0.44950000  1.0
  N  N103  1  0.46820000  0.06080000  0.63630000  1.0
  O  O104  1  0.06640000  0.17970000  0.95220000  1.0
  O  O105  1  0.91030000  0.05770000  0.81310000  1.0
  O  O106  1  0.06640000  0.77250000  0.82030000  1.0
  O  O107  1  0.91030000  0.75540000  0.94230000  1.0
  O  O108  1  0.06640000  0.04780000  0.22750000  1.0
  O  O109  1  0.91030000  0.18690000  0.24460000  1.0
  O  O110  1  0.56640000  0.82030000  0.04780000  1.0
  O  O111  1  0.41030000  0.94230000  0.18690000  1.0
  O  O112  1  0.56640000  0.22750000  0.17970000  1.0
  O  O113  1  0.41030000  0.24460000  0.05770000  1.0
  O  O114  1  0.56640000  0.95220000  0.77250000  1.0
  O  O115  1  0.41030000  0.81310000  0.75540000  1.0
