# generated using pymatgen
data_MnH2(CO2)2
_symmetry_space_group_name_H-M   'P 1'
_cell_length_a   11.65750000
_cell_length_b   10.10530000
_cell_length_c   14.87900000
_cell_angle_alpha   90.00000000
_cell_angle_beta   91.63300000
_cell_angle_gamma   90.00000000
_symmetry_Int_Tables_number   1
_chemical_formula_structural   MnH2(CO2)2
_chemical_formula_sum   'Mn12 H24 C24 O48'
_cell_volume   1752.07205209
_cell_formula_units_Z   12
loop_
 _symmetry_equiv_pos_site_id
 _symmetry_equiv_pos_as_xyz
  1  'x, y, z'
loop_
 _atom_site_type_symbol
 _atom_site_label
 _atom_site_symmetry_multiplicity
 _atom_site_fract_x
 _atom_site_fract_y
 _atom_site_fract_z
 _atom_site_occupancy
  Mn  Mn0  1  0.73947000  0.59944000  0.31509000  1.0
  Mn  Mn1  1  0.24317000  0.58462000  0.86883000  1.0
  Mn  Mn2  1  0.76053000  0.09944000  0.18491000  1.0
  Mn  Mn3  1  0.25683000  0.08462000  0.63117000  1.0
  Mn  Mn4  1  0.26053000  0.40056000  0.68491000  1.0
  Mn  Mn5  1  0.75683000  0.41538000  0.13117000  1.0
  Mn  Mn6  1  0.23947000  0.90056000  0.81509000  1.0
  Mn  Mn7  1  0.74317000  0.91538000  0.36883000  1.0
  Mn  Mn8  1  0.00000000  0.50000000  0.00000000  1.0
  Mn  Mn9  1  0.50000000  0.00000000  0.50000000  1.0
  Mn  Mn10  1  0.50000000  0.50000000  0.00000000  1.0
  Mn  Mn11  1  0.00000000  0.00000000  0.50000000  1.0
  H  H12  1  0.01880000  0.78220000  0.97770000  1.0
  H  H13  1  0.55400000  0.11310000  0.04210000  1.0
  H  H14  1  0.64570000  0.74900000  0.13440000  1.0
  H  H15  1  0.47810000  0.51300000  0.27040000  1.0
  H  H16  1  0.69190000  0.66420000  0.92730000  1.0
  H  H17  1  0.97940000  0.68170000  0.23190000  1.0
  H  H18  1  0.48120000  0.28220000  0.52230000  1.0
  H  H19  1  0.94600000  0.61310000  0.45790000  1.0
  H  H20  1  0.85430000  0.24900000  0.36560000  1.0
  H  H21  1  0.02190000  0.01300000  0.22960000  1.0
  H  H22  1  0.80810000  0.16420000  0.57270000  1.0
  H  H23  1  0.52060000  0.18170000  0.26810000  1.0
  H  H24  1  0.98120000  0.21780000  0.02230000  1.0
  H  H25  1  0.44600000  0.88690000  0.95790000  1.0
  H  H26  1  0.35430000  0.25100000  0.86560000  1.0
  H  H27  1  0.52190000  0.48700000  0.72960000  1.0
  H  H28  1  0.30810000  0.33580000  0.07270000  1.0
  H  H29  1  0.02060000  0.31830000  0.76810000  1.0
  H  H30  1  0.51880000  0.71780000  0.47770000  1.0
  H  H31  1  0.05400000  0.38690000  0.54210000  1.0
  H  H32  1  0.14570000  0.75100000  0.63440000  1.0
  H  H33  1  0.97810000  0.98700000  0.77040000  1.0
  H  H34  1  0.19190000  0.83580000  0.42730000  1.0
  H  H35  1  0.47940000  0.81830000  0.73190000  1.0
  C  C36  1  0.94770000  0.63100000  0.18600000  1.0
  C  C37  1  0.66940000  0.81720000  0.17000000  1.0
  C  C38  1  0.57350000  0.20810000  0.04950000  1.0
  C  C39  1  0.51860000  0.50920000  0.21170000  1.0
  C  C40  1  0.06540000  0.78230000  0.94730000  1.0
  C  C41  1  0.74120000  0.60280000  0.96780000  1.0
  C  C42  1  0.55230000  0.13100000  0.31400000  1.0
  C  C43  1  0.83060000  0.31720000  0.33000000  1.0
  C  C44  1  0.92650000  0.70810000  0.45050000  1.0
  C  C45  1  0.98140000  0.00920000  0.28830000  1.0
  C  C46  1  0.43460000  0.28230000  0.55270000  1.0
  C  C47  1  0.75880000  0.10280000  0.53220000  1.0
  C  C48  1  0.05230000  0.36900000  0.81400000  1.0
  C  C49  1  0.33060000  0.18280000  0.83000000  1.0
  C  C50  1  0.42650000  0.79190000  0.95050000  1.0
  C  C51  1  0.48140000  0.49080000  0.78830000  1.0
  C  C52  1  0.93460000  0.21770000  0.05270000  1.0
  C  C53  1  0.25880000  0.39720000  0.03220000  1.0
  C  C54  1  0.44770000  0.86900000  0.68600000  1.0
  C  C55  1  0.16940000  0.68280000  0.67000000  1.0
  C  C56  1  0.07350000  0.29190000  0.54950000  1.0
  C  C57  1  0.01860000  0.99080000  0.71170000  1.0
  C  C58  1  0.56540000  0.71770000  0.44730000  1.0
  C  C59  1  0.24120000  0.89720000  0.46780000  1.0
  O  O60  1  0.09858000  0.66260000  0.93979000  1.0
  O  O61  1  0.68612000  0.52880000  0.02157000  1.0
  O  O62  1  0.85165000  0.57600000  0.19750000  1.0
  O  O63  1  0.62704000  0.49810000  0.21960000  1.0
  O  O64  1  0.51900000  0.28760000  0.00203000  1.0
  O  O65  1  0.69174000  0.79190000  0.25249000  1.0
  O  O66  1  0.10660000  0.87960000  0.90936000  1.0
  O  O67  1  0.65347000  0.23670000  0.10685000  1.0
  O  O68  1  0.46123000  0.49770000  0.14117000  1.0
  O  O69  1  0.68420000  0.92470000  0.13167000  1.0
  O  O70  1  0.01290000  0.61160000  0.12341000  1.0
  O  O71  1  0.84620000  0.60740000  0.96224000  1.0
  O  O72  1  0.40142000  0.16260000  0.56021000  1.0
  O  O73  1  0.81388000  0.02880000  0.47843000  1.0
  O  O74  1  0.64835000  0.07600000  0.30250000  1.0
  O  O75  1  0.87296000  0.99810000  0.28040000  1.0
  O  O76  1  0.98100000  0.78760000  0.49797000  1.0
  O  O77  1  0.80826000  0.29190000  0.24751000  1.0
  O  O78  1  0.39340000  0.37960000  0.59064000  1.0
  O  O79  1  0.84653000  0.73670000  0.39315000  1.0
  O  O80  1  0.03877000  0.99770000  0.35883000  1.0
  O  O81  1  0.81580000  0.42470000  0.36833000  1.0
  O  O82  1  0.48710000  0.11160000  0.37659000  1.0
  O  O83  1  0.65380000  0.10740000  0.53776000  1.0
  O  O84  1  0.90142000  0.33740000  0.06021000  1.0
  O  O85  1  0.31388000  0.47120000  0.97843000  1.0
  O  O86  1  0.14835000  0.42400000  0.80250000  1.0
  O  O87  1  0.37296000  0.50190000  0.78040000  1.0
  O  O88  1  0.48100000  0.71240000  0.99797000  1.0
  O  O89  1  0.30826000  0.20810000  0.74751000  1.0
  O  O90  1  0.89340000  0.12040000  0.09064000  1.0
  O  O91  1  0.34653000  0.76330000  0.89315000  1.0
  O  O92  1  0.53877000  0.50230000  0.85883000  1.0
  O  O93  1  0.31580000  0.07530000  0.86833000  1.0
  O  O94  1  0.98710000  0.38840000  0.87659000  1.0
  O  O95  1  0.15380000  0.39260000  0.03776000  1.0
  O  O96  1  0.59858000  0.83740000  0.43979000  1.0
  O  O97  1  0.18612000  0.97120000  0.52157000  1.0
  O  O98  1  0.35165000  0.92400000  0.69750000  1.0
  O  O99  1  0.12704000  0.00190000  0.71960000  1.0
  O  O100  1  0.01900000  0.21240000  0.50203000  1.0
  O  O101  1  0.19174000  0.70810000  0.75249000  1.0
  O  O102  1  0.60660000  0.62040000  0.40936000  1.0
  O  O103  1  0.15347000  0.26330000  0.60685000  1.0
  O  O104  1  0.96123000  0.00230000  0.64117000  1.0
  O  O105  1  0.18420000  0.57530000  0.63167000  1.0
  O  O106  1  0.51290000  0.88840000  0.62341000  1.0
  O  O107  1  0.34620000  0.89260000  0.46224000  1.0
