# generated using pymatgen
data_ZnHC5O4
_symmetry_space_group_name_H-M   'P 1'
_cell_length_a   19.57600000
_cell_length_b   18.53500000
_cell_length_c   7.83770000
_cell_angle_alpha   90.00000000
_cell_angle_beta   94.15000000
_cell_angle_gamma   90.00000000
_symmetry_Int_Tables_number   1
_chemical_formula_structural   ZnHC5O4
_chemical_formula_sum   'Zn16 H16 C80 O64'
_cell_volume   2836.38363885
_cell_formula_units_Z   16
loop_
 _symmetry_equiv_pos_site_id
 _symmetry_equiv_pos_as_xyz
  1  'x, y, z'
loop_
 _atom_site_type_symbol
 _atom_site_label
 _atom_site_symmetry_multiplicity
 _atom_site_fract_x
 _atom_site_fract_y
 _atom_site_fract_z
 _atom_site_occupancy
  Zn  Zn0  1  0.35840000  0.14483000  0.35670000  1.0
  Zn  Zn1  1  0.08590000  0.97672000  0.36570000  1.0
  Zn  Zn2  1  0.85840000  0.64483000  0.35670000  1.0
  Zn  Zn3  1  0.58590000  0.47672000  0.36570000  1.0
  Zn  Zn4  1  0.64160000  0.14483000  0.14330000  1.0
  Zn  Zn5  1  0.91410000  0.97672000  0.13430000  1.0
  Zn  Zn6  1  0.14160000  0.64483000  0.14330000  1.0
  Zn  Zn7  1  0.41410000  0.47672000  0.13430000  1.0
  Zn  Zn8  1  0.64160000  0.85517000  0.64330000  1.0
  Zn  Zn9  1  0.91410000  0.02328000  0.63430000  1.0
  Zn  Zn10  1  0.14160000  0.35517000  0.64330000  1.0
  Zn  Zn11  1  0.41410000  0.52328000  0.63430000  1.0
  Zn  Zn12  1  0.35840000  0.85517000  0.85670000  1.0
  Zn  Zn13  1  0.08590000  0.02328000  0.86570000  1.0
  Zn  Zn14  1  0.85840000  0.35517000  0.85670000  1.0
  Zn  Zn15  1  0.58590000  0.52328000  0.86570000  1.0
  H  H16  1  0.00340000  0.18880000  0.06080000  1.0
  H  H17  1  0.21050000  0.30280000  0.13360000  1.0
  H  H18  1  0.50340000  0.68880000  0.06080000  1.0
  H  H19  1  0.71050000  0.80280000  0.13360000  1.0
  H  H20  1  0.99660000  0.18880000  0.43920000  1.0
  H  H21  1  0.78950000  0.30280000  0.36640000  1.0
  H  H22  1  0.49660000  0.68880000  0.43920000  1.0
  H  H23  1  0.28950000  0.80280000  0.36640000  1.0
  H  H24  1  0.99660000  0.81120000  0.93920000  1.0
  H  H25  1  0.78950000  0.69720000  0.86640000  1.0
  H  H26  1  0.49660000  0.31120000  0.93920000  1.0
  H  H27  1  0.28950000  0.19720000  0.86640000  1.0
  H  H28  1  0.00340000  0.81120000  0.56080000  1.0
  H  H29  1  0.21050000  0.69720000  0.63360000  1.0
  H  H30  1  0.50340000  0.31120000  0.56080000  1.0
  H  H31  1  0.71050000  0.19720000  0.63360000  1.0
  C  C32  1  0.98480000  0.32170000  0.97100000  1.0
  C  C33  1  0.04710000  0.27880000  0.02900000  1.0
  C  C34  1  0.04550000  0.21200000  0.07600000  1.0
  C  C35  1  0.10200000  0.16920000  0.14900000  1.0
  C  C36  1  0.09060000  0.09500000  0.21700000  1.0
  C  C37  1  0.16060000  0.20560000  0.15700000  1.0
  C  C38  1  0.22770000  0.16310000  0.21900000  1.0
  C  C39  1  0.16810000  0.28020000  0.11600000  1.0
  C  C40  1  0.11250000  0.31740000  0.05300000  1.0
  C  C41  1  0.12260000  0.39660000  0.00300000  1.0
  C  C42  1  0.48480000  0.82170000  0.97100000  1.0
  C  C43  1  0.54710000  0.77880000  0.02900000  1.0
  C  C44  1  0.54550000  0.71200000  0.07600000  1.0
  C  C45  1  0.60200000  0.66920000  0.14900000  1.0
  C  C46  1  0.59060000  0.59500000  0.21700000  1.0
  C  C47  1  0.66060000  0.70560000  0.15700000  1.0
  C  C48  1  0.72770000  0.66310000  0.21900000  1.0
  C  C49  1  0.66810000  0.78020000  0.11600000  1.0
  C  C50  1  0.61250000  0.81740000  0.05300000  1.0
  C  C51  1  0.62260000  0.89660000  0.00300000  1.0
  C  C52  1  0.01520000  0.32170000  0.52900000  1.0
  C  C53  1  0.95290000  0.27880000  0.47100000  1.0
  C  C54  1  0.95450000  0.21200000  0.42400000  1.0
  C  C55  1  0.89800000  0.16920000  0.35100000  1.0
  C  C56  1  0.90940000  0.09500000  0.28300000  1.0
  C  C57  1  0.83940000  0.20560000  0.34300000  1.0
  C  C58  1  0.77230000  0.16310000  0.28100000  1.0
  C  C59  1  0.83190000  0.28020000  0.38400000  1.0
  C  C60  1  0.88750000  0.31740000  0.44700000  1.0
  C  C61  1  0.87740000  0.39660000  0.49700000  1.0
  C  C62  1  0.51520000  0.82170000  0.52900000  1.0
  C  C63  1  0.45290000  0.77880000  0.47100000  1.0
  C  C64  1  0.45450000  0.71200000  0.42400000  1.0
  C  C65  1  0.39800000  0.66920000  0.35100000  1.0
  C  C66  1  0.40940000  0.59500000  0.28300000  1.0
  C  C67  1  0.33940000  0.70560000  0.34300000  1.0
  C  C68  1  0.27230000  0.66310000  0.28100000  1.0
  C  C69  1  0.33190000  0.78020000  0.38400000  1.0
  C  C70  1  0.38750000  0.81740000  0.44700000  1.0
  C  C71  1  0.37740000  0.89660000  0.49700000  1.0
  C  C72  1  0.01520000  0.67830000  0.02900000  1.0
  C  C73  1  0.95290000  0.72120000  0.97100000  1.0
  C  C74  1  0.95450000  0.78800000  0.92400000  1.0
  C  C75  1  0.89800000  0.83080000  0.85100000  1.0
  C  C76  1  0.90940000  0.90500000  0.78300000  1.0
  C  C77  1  0.83940000  0.79440000  0.84300000  1.0
  C  C78  1  0.77230000  0.83690000  0.78100000  1.0
  C  C79  1  0.83190000  0.71980000  0.88400000  1.0
  C  C80  1  0.88750000  0.68260000  0.94700000  1.0
  C  C81  1  0.87740000  0.60340000  0.99700000  1.0
  C  C82  1  0.51520000  0.17830000  0.02900000  1.0
  C  C83  1  0.45290000  0.22120000  0.97100000  1.0
  C  C84  1  0.45450000  0.28800000  0.92400000  1.0
  C  C85  1  0.39800000  0.33080000  0.85100000  1.0
  C  C86  1  0.40940000  0.40500000  0.78300000  1.0
  C  C87  1  0.33940000  0.29440000  0.84300000  1.0
  C  C88  1  0.27230000  0.33690000  0.78100000  1.0
  C  C89  1  0.33190000  0.21980000  0.88400000  1.0
  C  C90  1  0.38750000  0.18260000  0.94700000  1.0
  C  C91  1  0.37740000  0.10340000  0.99700000  1.0
  C  C92  1  0.98480000  0.67830000  0.47100000  1.0
  C  C93  1  0.04710000  0.72120000  0.52900000  1.0
  C  C94  1  0.04550000  0.78800000  0.57600000  1.0
  C  C95  1  0.10200000  0.83080000  0.64900000  1.0
  C  C96  1  0.09060000  0.90500000  0.71700000  1.0
  C  C97  1  0.16060000  0.79440000  0.65700000  1.0
  C  C98  1  0.22770000  0.83690000  0.71900000  1.0
  C  C99  1  0.16810000  0.71980000  0.61600000  1.0
  C  C100  1  0.11250000  0.68260000  0.55300000  1.0
  C  C101  1  0.12260000  0.60340000  0.50300000  1.0
  C  C102  1  0.48480000  0.17830000  0.47100000  1.0
  C  C103  1  0.54710000  0.22120000  0.52900000  1.0
  C  C104  1  0.54550000  0.28800000  0.57600000  1.0
  C  C105  1  0.60200000  0.33080000  0.64900000  1.0
  C  C106  1  0.59060000  0.40500000  0.71700000  1.0
  C  C107  1  0.66060000  0.29440000  0.65700000  1.0
  C  C108  1  0.72770000  0.33690000  0.71900000  1.0
  C  C109  1  0.66810000  0.21980000  0.61600000  1.0
  C  C110  1  0.61250000  0.18260000  0.55300000  1.0
  C  C111  1  0.62260000  0.10340000  0.50300000  1.0
  O  O112  1  0.93440000  0.28210000  0.92450000  1.0
  O  O113  1  0.98200000  0.39050000  0.97980000  1.0
  O  O114  1  0.11760000  0.41170000  0.84650000  1.0
  O  O115  1  0.13190000  0.43900000  0.11070000  1.0
  O  O116  1  0.07760000  0.04410000  0.10630000  1.0
  O  O117  1  0.08950000  0.08870000  0.36300000  1.0
  O  O118  1  0.22710000  0.10430000  0.20350000  1.0
  O  O119  1  0.28110000  0.20490000  0.28160000  1.0
  O  O120  1  0.43440000  0.78210000  0.92450000  1.0
  O  O121  1  0.48200000  0.89050000  0.97980000  1.0
  O  O122  1  0.61760000  0.91170000  0.84650000  1.0
  O  O123  1  0.63190000  0.93900000  0.11070000  1.0
  O  O124  1  0.57760000  0.54410000  0.10630000  1.0
  O  O125  1  0.58950000  0.58870000  0.36300000  1.0
  O  O126  1  0.72710000  0.60430000  0.20350000  1.0
  O  O127  1  0.78110000  0.70490000  0.28160000  1.0
  O  O128  1  0.06560000  0.28210000  0.57550000  1.0
  O  O129  1  0.01800000  0.39050000  0.52020000  1.0
  O  O130  1  0.88240000  0.41170000  0.65350000  1.0
  O  O131  1  0.86810000  0.43900000  0.38930000  1.0
  O  O132  1  0.92240000  0.04410000  0.39370000  1.0
  O  O133  1  0.91050000  0.08870000  0.13700000  1.0
  O  O134  1  0.77290000  0.10430000  0.29650000  1.0
  O  O135  1  0.71890000  0.20490000  0.21840000  1.0
  O  O136  1  0.56560000  0.78210000  0.57550000  1.0
  O  O137  1  0.51800000  0.89050000  0.52020000  1.0
  O  O138  1  0.38240000  0.91170000  0.65350000  1.0
  O  O139  1  0.36810000  0.93900000  0.38930000  1.0
  O  O140  1  0.42240000  0.54410000  0.39370000  1.0
  O  O141  1  0.41050000  0.58870000  0.13700000  1.0
  O  O142  1  0.27290000  0.60430000  0.29650000  1.0
  O  O143  1  0.21890000  0.70490000  0.21840000  1.0
  O  O144  1  0.06560000  0.71790000  0.07550000  1.0
  O  O145  1  0.01800000  0.60950000  0.02020000  1.0
  O  O146  1  0.88240000  0.58830000  0.15350000  1.0
  O  O147  1  0.86810000  0.56100000  0.88930000  1.0
  O  O148  1  0.92240000  0.95590000  0.89370000  1.0
  O  O149  1  0.91050000  0.91130000  0.63700000  1.0
  O  O150  1  0.77290000  0.89570000  0.79650000  1.0
  O  O151  1  0.71890000  0.79510000  0.71840000  1.0
  O  O152  1  0.56560000  0.21790000  0.07550000  1.0
  O  O153  1  0.51800000  0.10950000  0.02020000  1.0
  O  O154  1  0.38240000  0.08830000  0.15350000  1.0
  O  O155  1  0.36810000  0.06100000  0.88930000  1.0
  O  O156  1  0.42240000  0.45590000  0.89370000  1.0
  O  O157  1  0.41050000  0.41130000  0.63700000  1.0
  O  O158  1  0.27290000  0.39570000  0.79650000  1.0
  O  O159  1  0.21890000  0.29510000  0.71840000  1.0
  O  O160  1  0.93440000  0.71790000  0.42450000  1.0
  O  O161  1  0.98200000  0.60950000  0.47980000  1.0
  O  O162  1  0.11760000  0.58830000  0.34650000  1.0
  O  O163  1  0.13190000  0.56100000  0.61070000  1.0
  O  O164  1  0.07760000  0.95590000  0.60630000  1.0
  O  O165  1  0.08950000  0.91130000  0.86300000  1.0
  O  O166  1  0.22710000  0.89570000  0.70350000  1.0
  O  O167  1  0.28110000  0.79510000  0.78160000  1.0
  O  O168  1  0.43440000  0.21790000  0.42450000  1.0
  O  O169  1  0.48200000  0.10950000  0.47980000  1.0
  O  O170  1  0.61760000  0.08830000  0.34650000  1.0
  O  O171  1  0.63190000  0.06100000  0.61070000  1.0
  O  O172  1  0.57760000  0.45590000  0.60630000  1.0
  O  O173  1  0.58950000  0.41130000  0.86300000  1.0
  O  O174  1  0.72710000  0.39570000  0.70350000  1.0
  O  O175  1  0.78110000  0.29510000  0.78160000  1.0
