# generated using pymatgen
data_CrH4C8O5
_symmetry_space_group_name_H-M   'P 1'
_cell_length_a   16.42760000
_cell_length_b   13.61080000
_cell_length_c   6.86300000
_cell_angle_alpha   90.00000000
_cell_angle_beta   90.00000000
_cell_angle_gamma   90.00000000
_symmetry_Int_Tables_number   1
_chemical_formula_structural   CrH4C8O5
_chemical_formula_sum   'Cr4 H16 C32 O20'
_cell_volume   1534.51723596
_cell_formula_units_Z   4
loop_
 _symmetry_equiv_pos_site_id
 _symmetry_equiv_pos_as_xyz
  1  'x, y, z'
loop_
 _atom_site_type_symbol
 _atom_site_label
 _atom_site_symmetry_multiplicity
 _atom_site_fract_x
 _atom_site_fract_y
 _atom_site_fract_z
 _atom_site_occupancy
  Cr  Cr0  1  0.25000000  0.75000000  0.25000000  1.0
  Cr  Cr1  1  0.25000000  0.75000000  0.75000000  1.0
  Cr  Cr2  1  0.75000000  0.25000000  0.75000000  1.0
  Cr  Cr3  1  0.75000000  0.25000000  0.25000000  1.0
  H  H4  1  0.06342000  0.93404000  0.68297000  1.0
  H  H5  1  0.56342000  0.43404000  0.18297000  1.0
  H  H6  1  0.43658000  0.93404000  0.31703000  1.0
  H  H7  1  0.93658000  0.43404000  0.81703000  1.0
  H  H8  1  0.56342000  0.06596000  0.31703000  1.0
  H  H9  1  0.06342000  0.56596000  0.81703000  1.0
  H  H10  1  0.93658000  0.06596000  0.68297000  1.0
  H  H11  1  0.43658000  0.56596000  0.18297000  1.0
  H  H12  1  0.93658000  0.06596000  0.31703000  1.0
  H  H13  1  0.43658000  0.56596000  0.81703000  1.0
  H  H14  1  0.56342000  0.06596000  0.68297000  1.0
  H  H15  1  0.06342000  0.56596000  0.18297000  1.0
  H  H16  1  0.43658000  0.93404000  0.68297000  1.0
  H  H17  1  0.93658000  0.43404000  0.18297000  1.0
  H  H18  1  0.06342000  0.93404000  0.31703000  1.0
  H  H19  1  0.56342000  0.43404000  0.81703000  1.0
  C  C20  1  0.03733000  0.97102000  0.82240000  1.0
  C  C21  1  0.53733000  0.47102000  0.32240000  1.0
  C  C22  1  0.46267000  0.97102000  0.17760000  1.0
  C  C23  1  0.96267000  0.47102000  0.67760000  1.0
  C  C24  1  0.53733000  0.02898000  0.17760000  1.0
  C  C25  1  0.03733000  0.52898000  0.67760000  1.0
  C  C26  1  0.96267000  0.02898000  0.82240000  1.0
  C  C27  1  0.46267000  0.52898000  0.32240000  1.0
  C  C28  1  0.96267000  0.02898000  0.17760000  1.0
  C  C29  1  0.46267000  0.52898000  0.67760000  1.0
  C  C30  1  0.53733000  0.02898000  0.82240000  1.0
  C  C31  1  0.03733000  0.52898000  0.32240000  1.0
  C  C32  1  0.46267000  0.97102000  0.82240000  1.0
  C  C33  1  0.96267000  0.47102000  0.32240000  1.0
  C  C34  1  0.03733000  0.97102000  0.17760000  1.0
  C  C35  1  0.53733000  0.47102000  0.67760000  1.0
  C  C36  1  0.06831000  0.94703000  0.00000000  1.0
  C  C37  1  0.12760000  0.86979000  0.00000000  1.0
  C  C38  1  0.56831000  0.44703000  0.50000000  1.0
  C  C39  1  0.62760000  0.36979000  0.50000000  1.0
  C  C40  1  0.43169000  0.94703000  0.00000000  1.0
  C  C41  1  0.37240000  0.86979000  0.00000000  1.0
  C  C42  1  0.93169000  0.44703000  0.50000000  1.0
  C  C43  1  0.87240000  0.36979000  0.50000000  1.0
  C  C44  1  0.56831000  0.05297000  0.00000000  1.0
  C  C45  1  0.62760000  0.13021000  0.00000000  1.0
  C  C46  1  0.06831000  0.55297000  0.50000000  1.0
  C  C47  1  0.12760000  0.63021000  0.50000000  1.0
  C  C48  1  0.93169000  0.05297000  0.00000000  1.0
  C  C49  1  0.87240000  0.13021000  0.00000000  1.0
  C  C50  1  0.43169000  0.55297000  0.50000000  1.0
  C  C51  1  0.37240000  0.63021000  0.50000000  1.0
  O  O52  1  0.16479000  0.83993000  0.12879000  1.0
  O  O53  1  0.66479000  0.33993000  0.62879000  1.0
  O  O54  1  0.33521000  0.83993000  0.87121000  1.0
  O  O55  1  0.83521000  0.33993000  0.37121000  1.0
  O  O56  1  0.66479000  0.16007000  0.87121000  1.0
  O  O57  1  0.16479000  0.66007000  0.37121000  1.0
  O  O58  1  0.83521000  0.16007000  0.12879000  1.0
  O  O59  1  0.33521000  0.66007000  0.62879000  1.0
  O  O60  1  0.83521000  0.16007000  0.87121000  1.0
  O  O61  1  0.33521000  0.66007000  0.37121000  1.0
  O  O62  1  0.66479000  0.16007000  0.12879000  1.0
  O  O63  1  0.16479000  0.66007000  0.62879000  1.0
  O  O64  1  0.33521000  0.83993000  0.12879000  1.0
  O  O65  1  0.83521000  0.33993000  0.62879000  1.0
  O  O66  1  0.16479000  0.83993000  0.87121000  1.0
  O  O67  1  0.66479000  0.33993000  0.37121000  1.0
  O  O68  1  0.25000000  0.72457000  0.00000000  1.0
  O  O69  1  0.75000000  0.22457000  0.50000000  1.0
  O  O70  1  0.75000000  0.27543000  0.00000000  1.0
  O  O71  1  0.25000000  0.77543000  0.50000000  1.0
