# generated using pymatgen
data_AgH8(CN)2
_symmetry_space_group_name_H-M   'P 1'
_cell_length_a   20.11700000
_cell_length_b   19.56500000
_cell_length_c   5.96100000
_cell_angle_alpha   90.00000000
_cell_angle_beta   114.04000000
_cell_angle_gamma   90.00000000
_symmetry_Int_Tables_number   1
_chemical_formula_structural   AgH8(CN)2
_chemical_formula_sum   'Ag16 H128 C32 N32'
_cell_volume   2142.67959940
_cell_formula_units_Z   16
loop_
 _symmetry_equiv_pos_site_id
 _symmetry_equiv_pos_as_xyz
  1  'x, y, z'
loop_
 _atom_site_type_symbol
 _atom_site_label
 _atom_site_symmetry_multiplicity
 _atom_site_fract_x
 _atom_site_fract_y
 _atom_site_fract_z
 _atom_site_occupancy
  Ag  Ag0  1  0.50000000  0.00000000  0.00000000  1.0
  Ag  Ag1  1  0.00000000  0.50000000  0.00000000  1.0
  Ag  Ag2  1  0.50000000  0.00000000  0.50000000  1.0
  Ag  Ag3  1  0.00000000  0.50000000  0.50000000  1.0
  Ag  Ag4  1  0.75000000  0.25000000  0.00000000  1.0
  Ag  Ag5  1  0.25000000  0.25000000  0.50000000  1.0
  Ag  Ag6  1  0.25000000  0.75000000  0.00000000  1.0
  Ag  Ag7  1  0.75000000  0.75000000  0.50000000  1.0
  Ag  Ag8  1  0.75000000  0.25000000  0.50000000  1.0
  Ag  Ag9  1  0.25000000  0.25000000  0.00000000  1.0
  Ag  Ag10  1  0.25000000  0.75000000  0.50000000  1.0
  Ag  Ag11  1  0.75000000  0.75000000  0.00000000  1.0
  Ag  Ag12  1  0.00000000  0.00000000  0.50000000  1.0
  Ag  Ag13  1  0.50000000  0.50000000  0.50000000  1.0
  Ag  Ag14  1  0.00000000  0.00000000  0.00000000  1.0
  Ag  Ag15  1  0.50000000  0.50000000  0.00000000  1.0
  H  H16  1  0.58590000  0.07240000  0.25800000  1.0
  H  H17  1  0.62090000  0.02570000  0.14920000  1.0
  H  H18  1  0.61130000  0.23420000  0.86190000  1.0
  H  H19  1  0.63270000  0.18840000  0.70940000  1.0
  H  H20  1  0.87560000  0.21950000  0.62480000  1.0
  H  H21  1  0.84470000  0.17380000  0.75020000  1.0
  H  H22  1  0.88170000  0.06010000  0.21610000  1.0
  H  H23  1  0.86310000  0.01750000  0.38360000  1.0
  H  H24  1  0.53820000  0.13490000  0.91250000  1.0
  H  H25  1  0.57130000  0.08310000  0.78480000  1.0
  H  H26  1  0.65820000  0.16340000  0.19150000  1.0
  H  H27  1  0.68830000  0.11590000  0.04230000  1.0
  H  H28  1  0.81910000  0.15910000  0.26420000  1.0
  H  H29  1  0.79160000  0.10750000  0.41260000  1.0
  H  H30  1  0.94070000  0.13860000  0.53040000  1.0
  H  H31  1  0.91620000  0.09350000  0.70330000  1.0
  H  H32  1  0.08590000  0.57240000  0.25800000  1.0
  H  H33  1  0.12090000  0.52570000  0.14920000  1.0
  H  H34  1  0.11130000  0.73420000  0.86190000  1.0
  H  H35  1  0.13270000  0.68840000  0.70940000  1.0
  H  H36  1  0.37560000  0.71950000  0.62480000  1.0
  H  H37  1  0.34470000  0.67380000  0.75020000  1.0
  H  H38  1  0.38170000  0.56010000  0.21610000  1.0
  H  H39  1  0.36310000  0.51750000  0.38360000  1.0
  H  H40  1  0.03820000  0.63490000  0.91250000  1.0
  H  H41  1  0.07130000  0.58310000  0.78480000  1.0
  H  H42  1  0.15820000  0.66340000  0.19150000  1.0
  H  H43  1  0.18830000  0.61590000  0.04230000  1.0
  H  H44  1  0.31910000  0.65910000  0.26420000  1.0
  H  H45  1  0.29160000  0.60750000  0.41260000  1.0
  H  H46  1  0.44070000  0.63860000  0.53040000  1.0
  H  H47  1  0.41620000  0.59350000  0.70330000  1.0
  H  H48  1  0.41410000  0.07240000  0.24200000  1.0
  H  H49  1  0.37910000  0.02570000  0.35080000  1.0
  H  H50  1  0.38870000  0.23420000  0.63810000  1.0
  H  H51  1  0.36730000  0.18840000  0.79060000  1.0
  H  H52  1  0.12440000  0.21950000  0.87520000  1.0
  H  H53  1  0.15530000  0.17380000  0.74980000  1.0
  H  H54  1  0.11830000  0.06010000  0.28390000  1.0
  H  H55  1  0.13690000  0.01750000  0.11640000  1.0
  H  H56  1  0.46180000  0.13490000  0.58750000  1.0
  H  H57  1  0.42870000  0.08310000  0.71520000  1.0
  H  H58  1  0.34180000  0.16340000  0.30850000  1.0
  H  H59  1  0.31170000  0.11590000  0.45770000  1.0
  H  H60  1  0.18090000  0.15910000  0.23580000  1.0
  H  H61  1  0.20840000  0.10750000  0.08740000  1.0
  H  H62  1  0.05930000  0.13860000  0.96960000  1.0
  H  H63  1  0.08380000  0.09350000  0.79670000  1.0
  H  H64  1  0.91410000  0.57240000  0.24200000  1.0
  H  H65  1  0.87910000  0.52570000  0.35080000  1.0
  H  H66  1  0.88870000  0.73420000  0.63810000  1.0
  H  H67  1  0.86730000  0.68840000  0.79060000  1.0
  H  H68  1  0.62440000  0.71950000  0.87520000  1.0
  H  H69  1  0.65530000  0.67380000  0.74980000  1.0
  H  H70  1  0.61830000  0.56010000  0.28390000  1.0
  H  H71  1  0.63690000  0.51750000  0.11640000  1.0
  H  H72  1  0.96180000  0.63490000  0.58750000  1.0
  H  H73  1  0.92870000  0.58310000  0.71520000  1.0
  H  H74  1  0.84180000  0.66340000  0.30850000  1.0
  H  H75  1  0.81170000  0.61590000  0.45770000  1.0
  H  H76  1  0.68090000  0.65910000  0.23580000  1.0
  H  H77  1  0.70840000  0.60750000  0.08740000  1.0
  H  H78  1  0.55930000  0.63860000  0.96960000  1.0
  H  H79  1  0.58380000  0.59350000  0.79670000  1.0
  H  H80  1  0.41410000  0.92760000  0.74200000  1.0
  H  H81  1  0.37910000  0.97430000  0.85080000  1.0
  H  H82  1  0.38870000  0.76580000  0.13810000  1.0
  H  H83  1  0.36730000  0.81160000  0.29060000  1.0
  H  H84  1  0.12440000  0.78050000  0.37520000  1.0
  H  H85  1  0.15530000  0.82620000  0.24980000  1.0
  H  H86  1  0.11830000  0.93990000  0.78390000  1.0
  H  H87  1  0.13690000  0.98250000  0.61640000  1.0
  H  H88  1  0.46180000  0.86510000  0.08750000  1.0
  H  H89  1  0.42870000  0.91690000  0.21520000  1.0
  H  H90  1  0.34180000  0.83660000  0.80850000  1.0
  H  H91  1  0.31170000  0.88410000  0.95770000  1.0
  H  H92  1  0.18090000  0.84090000  0.73580000  1.0
  H  H93  1  0.20840000  0.89250000  0.58740000  1.0
  H  H94  1  0.05930000  0.86140000  0.46960000  1.0
  H  H95  1  0.08380000  0.90650000  0.29670000  1.0
  H  H96  1  0.91410000  0.42760000  0.74200000  1.0
  H  H97  1  0.87910000  0.47430000  0.85080000  1.0
  H  H98  1  0.88870000  0.26580000  0.13810000  1.0
  H  H99  1  0.86730000  0.31160000  0.29060000  1.0
  H  H100  1  0.62440000  0.28050000  0.37520000  1.0
  H  H101  1  0.65530000  0.32620000  0.24980000  1.0
  H  H102  1  0.61830000  0.43990000  0.78390000  1.0
  H  H103  1  0.63690000  0.48250000  0.61640000  1.0
  H  H104  1  0.96180000  0.36510000  0.08750000  1.0
  H  H105  1  0.92870000  0.41690000  0.21520000  1.0
  H  H106  1  0.84180000  0.33660000  0.80850000  1.0
  H  H107  1  0.81170000  0.38410000  0.95770000  1.0
  H  H108  1  0.68090000  0.34090000  0.73580000  1.0
  H  H109  1  0.70840000  0.39250000  0.58740000  1.0
  H  H110  1  0.55930000  0.36140000  0.46960000  1.0
  H  H111  1  0.58380000  0.40650000  0.29670000  1.0
  H  H112  1  0.58590000  0.92760000  0.75800000  1.0
  H  H113  1  0.62090000  0.97430000  0.64920000  1.0
  H  H114  1  0.61130000  0.76580000  0.36190000  1.0
  H  H115  1  0.63270000  0.81160000  0.20940000  1.0
  H  H116  1  0.87560000  0.78050000  0.12480000  1.0
  H  H117  1  0.84470000  0.82620000  0.25020000  1.0
  H  H118  1  0.88170000  0.93990000  0.71610000  1.0
  H  H119  1  0.86310000  0.98250000  0.88360000  1.0
  H  H120  1  0.53820000  0.86510000  0.41250000  1.0
  H  H121  1  0.57130000  0.91690000  0.28480000  1.0
  H  H122  1  0.65820000  0.83660000  0.69150000  1.0
  H  H123  1  0.68830000  0.88410000  0.54230000  1.0
  H  H124  1  0.81910000  0.84090000  0.76420000  1.0
  H  H125  1  0.79160000  0.89250000  0.91260000  1.0
  H  H126  1  0.94070000  0.86140000  0.03040000  1.0
  H  H127  1  0.91620000  0.90650000  0.20330000  1.0
  H  H128  1  0.08590000  0.42760000  0.75800000  1.0
  H  H129  1  0.12090000  0.47430000  0.64920000  1.0
  H  H130  1  0.11130000  0.26580000  0.36190000  1.0
  H  H131  1  0.13270000  0.31160000  0.20940000  1.0
  H  H132  1  0.37560000  0.28050000  0.12480000  1.0
  H  H133  1  0.34470000  0.32620000  0.25020000  1.0
  H  H134  1  0.38170000  0.43990000  0.71610000  1.0
  H  H135  1  0.36310000  0.48250000  0.88360000  1.0
  H  H136  1  0.03820000  0.36510000  0.41250000  1.0
  H  H137  1  0.07130000  0.41690000  0.28480000  1.0
  H  H138  1  0.15820000  0.33660000  0.69150000  1.0
  H  H139  1  0.18830000  0.38410000  0.54230000  1.0
  H  H140  1  0.31910000  0.34090000  0.76420000  1.0
  H  H141  1  0.29160000  0.39250000  0.91260000  1.0
  H  H142  1  0.44070000  0.36140000  0.03040000  1.0
  H  H143  1  0.41620000  0.40650000  0.20330000  1.0
  C  C144  1  0.57890000  0.10460000  0.94000000  1.0
  C  C145  1  0.64830000  0.14570000  0.02900000  1.0
  C  C146  1  0.82940000  0.13990000  0.42500000  1.0
  C  C147  1  0.90380000  0.10740000  0.53500000  1.0
  C  C148  1  0.07890000  0.60460000  0.94000000  1.0
  C  C149  1  0.14830000  0.64570000  0.02900000  1.0
  C  C150  1  0.32940000  0.63990000  0.42500000  1.0
  C  C151  1  0.40380000  0.60740000  0.53500000  1.0
  C  C152  1  0.42110000  0.10460000  0.56000000  1.0
  C  C153  1  0.35170000  0.14570000  0.47100000  1.0
  C  C154  1  0.17060000  0.13990000  0.07500000  1.0
  C  C155  1  0.09620000  0.10740000  0.96500000  1.0
  C  C156  1  0.92110000  0.60460000  0.56000000  1.0
  C  C157  1  0.85170000  0.64570000  0.47100000  1.0
  C  C158  1  0.67060000  0.63990000  0.07500000  1.0
  C  C159  1  0.59620000  0.60740000  0.96500000  1.0
  C  C160  1  0.42110000  0.89540000  0.06000000  1.0
  C  C161  1  0.35170000  0.85430000  0.97100000  1.0
  C  C162  1  0.17060000  0.86010000  0.57500000  1.0
  C  C163  1  0.09620000  0.89260000  0.46500000  1.0
  C  C164  1  0.92110000  0.39540000  0.06000000  1.0
  C  C165  1  0.85170000  0.35430000  0.97100000  1.0
  C  C166  1  0.67060000  0.36010000  0.57500000  1.0
  C  C167  1  0.59620000  0.39260000  0.46500000  1.0
  C  C168  1  0.57890000  0.89540000  0.44000000  1.0
  C  C169  1  0.64830000  0.85430000  0.52900000  1.0
  C  C170  1  0.82940000  0.86010000  0.92500000  1.0
  C  C171  1  0.90380000  0.89260000  0.03500000  1.0
  C  C172  1  0.07890000  0.39540000  0.44000000  1.0
  C  C173  1  0.14830000  0.35430000  0.52900000  1.0
  C  C174  1  0.32940000  0.36010000  0.92500000  1.0
  C  C175  1  0.40380000  0.39260000  0.03500000  1.0
  N  N176  1  0.58160000  0.05240000  0.11700000  1.0
  N  N177  1  0.64490000  0.20360000  0.86400000  1.0
  N  N178  1  0.83680000  0.19320000  0.60500000  1.0
  N  N179  1  0.89620000  0.04690000  0.37400000  1.0
  N  N180  1  0.08160000  0.55240000  0.11700000  1.0
  N  N181  1  0.14490000  0.70360000  0.86400000  1.0
  N  N182  1  0.33680000  0.69320000  0.60500000  1.0
  N  N183  1  0.39620000  0.54690000  0.37400000  1.0
  N  N184  1  0.41840000  0.05240000  0.38300000  1.0
  N  N185  1  0.35510000  0.20360000  0.63600000  1.0
  N  N186  1  0.16320000  0.19320000  0.89500000  1.0
  N  N187  1  0.10380000  0.04690000  0.12600000  1.0
  N  N188  1  0.91840000  0.55240000  0.38300000  1.0
  N  N189  1  0.85510000  0.70360000  0.63600000  1.0
  N  N190  1  0.66320000  0.69320000  0.89500000  1.0
  N  N191  1  0.60380000  0.54690000  0.12600000  1.0
  N  N192  1  0.41840000  0.94760000  0.88300000  1.0
  N  N193  1  0.35510000  0.79640000  0.13600000  1.0
  N  N194  1  0.16320000  0.80680000  0.39500000  1.0
  N  N195  1  0.10380000  0.95310000  0.62600000  1.0
  N  N196  1  0.91840000  0.44760000  0.88300000  1.0
  N  N197  1  0.85510000  0.29640000  0.13600000  1.0
  N  N198  1  0.66320000  0.30680000  0.39500000  1.0
  N  N199  1  0.60380000  0.45310000  0.62600000  1.0
  N  N200  1  0.58160000  0.94760000  0.61700000  1.0
  N  N201  1  0.64490000  0.79640000  0.36400000  1.0
  N  N202  1  0.83680000  0.80680000  0.10500000  1.0
  N  N203  1  0.89620000  0.95310000  0.87400000  1.0
  N  N204  1  0.08160000  0.44760000  0.61700000  1.0
  N  N205  1  0.14490000  0.29640000  0.36400000  1.0
  N  N206  1  0.33680000  0.30680000  0.10500000  1.0
  N  N207  1  0.39620000  0.45310000  0.87400000  1.0
