# generated using pymatgen
data_AgH8(CN)2
_symmetry_space_group_name_H-M   'P 1'
_cell_length_a   10.50800000
_cell_length_b   10.46400000
_cell_length_c   6.33600000
_cell_angle_alpha   90.00000000
_cell_angle_beta   115.49000000
_cell_angle_gamma   90.00000000
_symmetry_Int_Tables_number   1
_chemical_formula_structural   AgH8(CN)2
_chemical_formula_sum   'Ag4 H32 C8 N8'
_cell_volume   628.86490421
_cell_formula_units_Z   4
loop_
 _symmetry_equiv_pos_site_id
 _symmetry_equiv_pos_as_xyz
  1  'x, y, z'
loop_
 _atom_site_type_symbol
 _atom_site_label
 _atom_site_symmetry_multiplicity
 _atom_site_fract_x
 _atom_site_fract_y
 _atom_site_fract_z
 _atom_site_occupancy
  Ag  Ag0  1  0.50000000  0.00000000  0.50000000  1.0
  Ag  Ag1  1  0.00000000  0.50000000  0.50000000  1.0
  Ag  Ag2  1  0.50000000  0.00000000  0.00000000  1.0
  Ag  Ag3  1  0.00000000  0.50000000  0.00000000  1.0
  H  H4  1  0.39640000  0.26460000  0.58390000  1.0
  H  H5  1  0.32460000  0.16880000  0.68960000  1.0
  H  H6  1  0.30210000  0.14960000  0.24740000  1.0
  H  H7  1  0.24110000  0.05930000  0.35190000  1.0
  H  H8  1  0.89640000  0.76460000  0.58390000  1.0
  H  H9  1  0.82460000  0.66880000  0.68960000  1.0
  H  H10  1  0.80210000  0.64960000  0.24740000  1.0
  H  H11  1  0.74110000  0.55930000  0.35190000  1.0
  H  H12  1  0.60360000  0.26460000  0.91610000  1.0
  H  H13  1  0.67540000  0.16880000  0.81040000  1.0
  H  H14  1  0.69790000  0.14960000  0.25260000  1.0
  H  H15  1  0.75890000  0.05930000  0.14810000  1.0
  H  H16  1  0.10360000  0.76460000  0.91610000  1.0
  H  H17  1  0.17540000  0.66880000  0.81040000  1.0
  H  H18  1  0.19790000  0.64960000  0.25260000  1.0
  H  H19  1  0.25890000  0.55930000  0.14810000  1.0
  H  H20  1  0.60360000  0.73540000  0.41610000  1.0
  H  H21  1  0.67540000  0.83120000  0.31040000  1.0
  H  H22  1  0.69790000  0.85040000  0.75260000  1.0
  H  H23  1  0.75890000  0.94070000  0.64810000  1.0
  H  H24  1  0.10360000  0.23540000  0.41610000  1.0
  H  H25  1  0.17540000  0.33120000  0.31040000  1.0
  H  H26  1  0.19790000  0.35040000  0.75260000  1.0
  H  H27  1  0.25890000  0.44070000  0.64810000  1.0
  H  H28  1  0.39640000  0.73540000  0.08390000  1.0
  H  H29  1  0.32460000  0.83120000  0.18960000  1.0
  H  H30  1  0.30210000  0.85040000  0.74740000  1.0
  H  H31  1  0.24110000  0.94070000  0.85190000  1.0
  H  H32  1  0.89640000  0.23540000  0.08390000  1.0
  H  H33  1  0.82460000  0.33120000  0.18960000  1.0
  H  H34  1  0.80210000  0.35040000  0.74740000  1.0
  H  H35  1  0.74110000  0.44070000  0.85190000  1.0
  C  C36  1  0.31510000  0.20970000  0.54610000  1.0
  C  C37  1  0.81510000  0.70970000  0.54610000  1.0
  C  C38  1  0.68490000  0.20970000  0.95390000  1.0
  C  C39  1  0.18490000  0.70970000  0.95390000  1.0
  C  C40  1  0.68490000  0.79030000  0.45390000  1.0
  C  C41  1  0.18490000  0.29030000  0.45390000  1.0
  C  C42  1  0.31510000  0.79030000  0.04610000  1.0
  C  C43  1  0.81510000  0.29030000  0.04610000  1.0
  N  N44  1  0.31500000  0.11160000  0.38250000  1.0
  N  N45  1  0.81500000  0.61160000  0.38250000  1.0
  N  N46  1  0.68500000  0.11160000  0.11750000  1.0
  N  N47  1  0.18500000  0.61160000  0.11750000  1.0
  N  N48  1  0.68500000  0.88840000  0.61750000  1.0
  N  N49  1  0.18500000  0.38840000  0.61750000  1.0
  N  N50  1  0.31500000  0.88840000  0.88250000  1.0
  N  N51  1  0.81500000  0.38840000  0.88250000  1.0
