# generated using pymatgen
data_AgH8(CN)2
_symmetry_space_group_name_H-M   'P 1'
_cell_length_a   20.86200000
_cell_length_b   19.93100000
_cell_length_c   6.18950000
_cell_angle_alpha   90.00000000
_cell_angle_beta   114.55000000
_cell_angle_gamma   90.00000000
_symmetry_Int_Tables_number   1
_chemical_formula_structural   AgH8(CN)2
_chemical_formula_sum   'Ag16 H128 C32 N32'
_cell_volume   2340.94165206
_cell_formula_units_Z   16
loop_
 _symmetry_equiv_pos_site_id
 _symmetry_equiv_pos_as_xyz
  1  'x, y, z'
loop_
 _atom_site_type_symbol
 _atom_site_label
 _atom_site_symmetry_multiplicity
 _atom_site_fract_x
 _atom_site_fract_y
 _atom_site_fract_z
 _atom_site_occupancy
  Ag  Ag0  1  0.50000000  0.00000000  0.00000000  1.0
  Ag  Ag1  1  0.00000000  0.50000000  0.00000000  1.0
  Ag  Ag2  1  0.50000000  0.00000000  0.50000000  1.0
  Ag  Ag3  1  0.00000000  0.50000000  0.50000000  1.0
  Ag  Ag4  1  0.75000000  0.25000000  0.00000000  1.0
  Ag  Ag5  1  0.25000000  0.25000000  0.50000000  1.0
  Ag  Ag6  1  0.25000000  0.75000000  0.00000000  1.0
  Ag  Ag7  1  0.75000000  0.75000000  0.50000000  1.0
  Ag  Ag8  1  0.75000000  0.25000000  0.50000000  1.0
  Ag  Ag9  1  0.25000000  0.25000000  0.00000000  1.0
  Ag  Ag10  1  0.25000000  0.75000000  0.50000000  1.0
  Ag  Ag11  1  0.75000000  0.75000000  0.00000000  1.0
  Ag  Ag12  1  0.00000000  0.00000000  0.50000000  1.0
  Ag  Ag13  1  0.50000000  0.50000000  0.50000000  1.0
  Ag  Ag14  1  0.00000000  0.00000000  0.00000000  1.0
  Ag  Ag15  1  0.50000000  0.50000000  0.00000000  1.0
  H  H16  1  0.60590000  0.06390000  0.25360000  1.0
  H  H17  1  0.62570000  0.02110000  0.10000000  1.0
  H  H18  1  0.61460000  0.23190000  0.86620000  1.0
  H  H19  1  0.63490000  0.18850000  0.71520000  1.0
  H  H20  1  0.88310000  0.22360000  0.62670000  1.0
  H  H21  1  0.85870000  0.17760000  0.76070000  1.0
  H  H22  1  0.89320000  0.07660000  0.21800000  1.0
  H  H23  1  0.86340000  0.03040000  0.33530000  1.0
  H  H24  1  0.54750000  0.13520000  0.94670000  1.0
  H  H25  1  0.57090000  0.08970000  0.78520000  1.0
  H  H26  1  0.66560000  0.16120000  0.18340000  1.0
  H  H27  1  0.68940000  0.11500000  0.02520000  1.0
  H  H28  1  0.82620000  0.16350000  0.28470000  1.0
  H  H29  1  0.79940000  0.11380000  0.42890000  1.0
  H  H30  1  0.94500000  0.14070000  0.55540000  1.0
  H  H31  1  0.91730000  0.08930000  0.69110000  1.0
  H  H32  1  0.10590000  0.56390000  0.25360000  1.0
  H  H33  1  0.12570000  0.52110000  0.10000000  1.0
  H  H34  1  0.11460000  0.73190000  0.86620000  1.0
  H  H35  1  0.13490000  0.68850000  0.71520000  1.0
  H  H36  1  0.38310000  0.72360000  0.62670000  1.0
  H  H37  1  0.35870000  0.67760000  0.76070000  1.0
  H  H38  1  0.39320000  0.57660000  0.21800000  1.0
  H  H39  1  0.36340000  0.53040000  0.33530000  1.0
  H  H40  1  0.04750000  0.63520000  0.94670000  1.0
  H  H41  1  0.07090000  0.58970000  0.78520000  1.0
  H  H42  1  0.16560000  0.66120000  0.18340000  1.0
  H  H43  1  0.18940000  0.61500000  0.02520000  1.0
  H  H44  1  0.32620000  0.66350000  0.28470000  1.0
  H  H45  1  0.29940000  0.61380000  0.42890000  1.0
  H  H46  1  0.44500000  0.64070000  0.55540000  1.0
  H  H47  1  0.41730000  0.58930000  0.69110000  1.0
  H  H48  1  0.39410000  0.06390000  0.24640000  1.0
  H  H49  1  0.37430000  0.02110000  0.40000000  1.0
  H  H50  1  0.38540000  0.23190000  0.63380000  1.0
  H  H51  1  0.36510000  0.18850000  0.78480000  1.0
  H  H52  1  0.11690000  0.22360000  0.87330000  1.0
  H  H53  1  0.14130000  0.17760000  0.73930000  1.0
  H  H54  1  0.10680000  0.07660000  0.28200000  1.0
  H  H55  1  0.13660000  0.03040000  0.16470000  1.0
  H  H56  1  0.45250000  0.13520000  0.55330000  1.0
  H  H57  1  0.42910000  0.08970000  0.71480000  1.0
  H  H58  1  0.33440000  0.16120000  0.31660000  1.0
  H  H59  1  0.31060000  0.11500000  0.47480000  1.0
  H  H60  1  0.17380000  0.16350000  0.21530000  1.0
  H  H61  1  0.20060000  0.11380000  0.07110000  1.0
  H  H62  1  0.05500000  0.14070000  0.94460000  1.0
  H  H63  1  0.08270000  0.08930000  0.80890000  1.0
  H  H64  1  0.89410000  0.56390000  0.24640000  1.0
  H  H65  1  0.87430000  0.52110000  0.40000000  1.0
  H  H66  1  0.88540000  0.73190000  0.63380000  1.0
  H  H67  1  0.86510000  0.68850000  0.78480000  1.0
  H  H68  1  0.61690000  0.72360000  0.87330000  1.0
  H  H69  1  0.64130000  0.67760000  0.73930000  1.0
  H  H70  1  0.60680000  0.57660000  0.28200000  1.0
  H  H71  1  0.63660000  0.53040000  0.16470000  1.0
  H  H72  1  0.95250000  0.63520000  0.55330000  1.0
  H  H73  1  0.92910000  0.58970000  0.71480000  1.0
  H  H74  1  0.83440000  0.66120000  0.31660000  1.0
  H  H75  1  0.81060000  0.61500000  0.47480000  1.0
  H  H76  1  0.67380000  0.66350000  0.21530000  1.0
  H  H77  1  0.70060000  0.61380000  0.07110000  1.0
  H  H78  1  0.55500000  0.64070000  0.94460000  1.0
  H  H79  1  0.58270000  0.58930000  0.80890000  1.0
  H  H80  1  0.39410000  0.93610000  0.74640000  1.0
  H  H81  1  0.37430000  0.97890000  0.90000000  1.0
  H  H82  1  0.38540000  0.76810000  0.13380000  1.0
  H  H83  1  0.36510000  0.81150000  0.28480000  1.0
  H  H84  1  0.11690000  0.77640000  0.37330000  1.0
  H  H85  1  0.14130000  0.82240000  0.23930000  1.0
  H  H86  1  0.10680000  0.92340000  0.78200000  1.0
  H  H87  1  0.13660000  0.96960000  0.66470000  1.0
  H  H88  1  0.45250000  0.86480000  0.05330000  1.0
  H  H89  1  0.42910000  0.91030000  0.21480000  1.0
  H  H90  1  0.33440000  0.83880000  0.81660000  1.0
  H  H91  1  0.31060000  0.88500000  0.97480000  1.0
  H  H92  1  0.17380000  0.83650000  0.71530000  1.0
  H  H93  1  0.20060000  0.88620000  0.57110000  1.0
  H  H94  1  0.05500000  0.85930000  0.44460000  1.0
  H  H95  1  0.08270000  0.91070000  0.30890000  1.0
  H  H96  1  0.89410000  0.43610000  0.74640000  1.0
  H  H97  1  0.87430000  0.47890000  0.90000000  1.0
  H  H98  1  0.88540000  0.26810000  0.13380000  1.0
  H  H99  1  0.86510000  0.31150000  0.28480000  1.0
  H  H100  1  0.61690000  0.27640000  0.37330000  1.0
  H  H101  1  0.64130000  0.32240000  0.23930000  1.0
  H  H102  1  0.60680000  0.42340000  0.78200000  1.0
  H  H103  1  0.63660000  0.46960000  0.66470000  1.0
  H  H104  1  0.95250000  0.36480000  0.05330000  1.0
  H  H105  1  0.92910000  0.41030000  0.21480000  1.0
  H  H106  1  0.83440000  0.33880000  0.81660000  1.0
  H  H107  1  0.81060000  0.38500000  0.97480000  1.0
  H  H108  1  0.67380000  0.33650000  0.71530000  1.0
  H  H109  1  0.70060000  0.38620000  0.57110000  1.0
  H  H110  1  0.55500000  0.35930000  0.44460000  1.0
  H  H111  1  0.58270000  0.41070000  0.30890000  1.0
  H  H112  1  0.60590000  0.93610000  0.75360000  1.0
  H  H113  1  0.62570000  0.97890000  0.60000000  1.0
  H  H114  1  0.61460000  0.76810000  0.36620000  1.0
  H  H115  1  0.63490000  0.81150000  0.21520000  1.0
  H  H116  1  0.88310000  0.77640000  0.12670000  1.0
  H  H117  1  0.85870000  0.82240000  0.26070000  1.0
  H  H118  1  0.89320000  0.92340000  0.71800000  1.0
  H  H119  1  0.86340000  0.96960000  0.83530000  1.0
  H  H120  1  0.54750000  0.86480000  0.44670000  1.0
  H  H121  1  0.57090000  0.91030000  0.28520000  1.0
  H  H122  1  0.66560000  0.83880000  0.68340000  1.0
  H  H123  1  0.68940000  0.88500000  0.52520000  1.0
  H  H124  1  0.82620000  0.83650000  0.78470000  1.0
  H  H125  1  0.79940000  0.88620000  0.92890000  1.0
  H  H126  1  0.94500000  0.85930000  0.05540000  1.0
  H  H127  1  0.91730000  0.91070000  0.19110000  1.0
  H  H128  1  0.10590000  0.43610000  0.75360000  1.0
  H  H129  1  0.12570000  0.47890000  0.60000000  1.0
  H  H130  1  0.11460000  0.26810000  0.36620000  1.0
  H  H131  1  0.13490000  0.31150000  0.21520000  1.0
  H  H132  1  0.38310000  0.27640000  0.12670000  1.0
  H  H133  1  0.35870000  0.32240000  0.26070000  1.0
  H  H134  1  0.39320000  0.42340000  0.71800000  1.0
  H  H135  1  0.36340000  0.46960000  0.83530000  1.0
  H  H136  1  0.04750000  0.36480000  0.44670000  1.0
  H  H137  1  0.07090000  0.41030000  0.28520000  1.0
  H  H138  1  0.16560000  0.33880000  0.68340000  1.0
  H  H139  1  0.18940000  0.38500000  0.52520000  1.0
  H  H140  1  0.32620000  0.33650000  0.78470000  1.0
  H  H141  1  0.29940000  0.38620000  0.92890000  1.0
  H  H142  1  0.44500000  0.35930000  0.05540000  1.0
  H  H143  1  0.41730000  0.41070000  0.19110000  1.0
  C  C144  1  0.58450000  0.10590000  0.94600000  1.0
  C  C145  1  0.65240000  0.14490000  0.02300000  1.0
  C  C146  1  0.83690000  0.14420000  0.44000000  1.0
  C  C147  1  0.90750000  0.10950000  0.53800000  1.0
  C  C148  1  0.08450000  0.60590000  0.94600000  1.0
  C  C149  1  0.15240000  0.64490000  0.02300000  1.0
  C  C150  1  0.33690000  0.64420000  0.44000000  1.0
  C  C151  1  0.40750000  0.60950000  0.53800000  1.0
  C  C152  1  0.41550000  0.10590000  0.55400000  1.0
  C  C153  1  0.34760000  0.14490000  0.47700000  1.0
  C  C154  1  0.16310000  0.14420000  0.06000000  1.0
  C  C155  1  0.09250000  0.10950000  0.96200000  1.0
  C  C156  1  0.91550000  0.60590000  0.55400000  1.0
  C  C157  1  0.84760000  0.64490000  0.47700000  1.0
  C  C158  1  0.66310000  0.64420000  0.06000000  1.0
  C  C159  1  0.59250000  0.60950000  0.96200000  1.0
  C  C160  1  0.41550000  0.89410000  0.05400000  1.0
  C  C161  1  0.34760000  0.85510000  0.97700000  1.0
  C  C162  1  0.16310000  0.85580000  0.56000000  1.0
  C  C163  1  0.09250000  0.89050000  0.46200000  1.0
  C  C164  1  0.91550000  0.39410000  0.05400000  1.0
  C  C165  1  0.84760000  0.35510000  0.97700000  1.0
  C  C166  1  0.66310000  0.35580000  0.56000000  1.0
  C  C167  1  0.59250000  0.39050000  0.46200000  1.0
  C  C168  1  0.58450000  0.89410000  0.44600000  1.0
  C  C169  1  0.65240000  0.85510000  0.52300000  1.0
  C  C170  1  0.83690000  0.85580000  0.94000000  1.0
  C  C171  1  0.90750000  0.89050000  0.03800000  1.0
  C  C172  1  0.08450000  0.39410000  0.44600000  1.0
  C  C173  1  0.15240000  0.35510000  0.52300000  1.0
  C  C174  1  0.33690000  0.35580000  0.94000000  1.0
  C  C175  1  0.40750000  0.39050000  0.03800000  1.0
  N  N176  1  0.59230000  0.04920000  0.10400000  1.0
  N  N177  1  0.64730000  0.20260000  0.86500000  1.0
  N  N178  1  0.84780000  0.19600000  0.61700000  1.0
  N  N179  1  0.90010000  0.05750000  0.35800000  1.0
  N  N180  1  0.09230000  0.54920000  0.10400000  1.0
  N  N181  1  0.14730000  0.70260000  0.86500000  1.0
  N  N182  1  0.34780000  0.69600000  0.61700000  1.0
  N  N183  1  0.40010000  0.55750000  0.35800000  1.0
  N  N184  1  0.40770000  0.04920000  0.39600000  1.0
  N  N185  1  0.35270000  0.20260000  0.63500000  1.0
  N  N186  1  0.15220000  0.19600000  0.88300000  1.0
  N  N187  1  0.09990000  0.05750000  0.14200000  1.0
  N  N188  1  0.90770000  0.54920000  0.39600000  1.0
  N  N189  1  0.85270000  0.70260000  0.63500000  1.0
  N  N190  1  0.65220000  0.69600000  0.88300000  1.0
  N  N191  1  0.59990000  0.55750000  0.14200000  1.0
  N  N192  1  0.40770000  0.95080000  0.89600000  1.0
  N  N193  1  0.35270000  0.79740000  0.13500000  1.0
  N  N194  1  0.15220000  0.80400000  0.38300000  1.0
  N  N195  1  0.09990000  0.94250000  0.64200000  1.0
  N  N196  1  0.90770000  0.45080000  0.89600000  1.0
  N  N197  1  0.85270000  0.29740000  0.13500000  1.0
  N  N198  1  0.65220000  0.30400000  0.38300000  1.0
  N  N199  1  0.59990000  0.44250000  0.64200000  1.0
  N  N200  1  0.59230000  0.95080000  0.60400000  1.0
  N  N201  1  0.64730000  0.79740000  0.36500000  1.0
  N  N202  1  0.84780000  0.80400000  0.11700000  1.0
  N  N203  1  0.90010000  0.94250000  0.85800000  1.0
  N  N204  1  0.09230000  0.45080000  0.60400000  1.0
  N  N205  1  0.14730000  0.29740000  0.36500000  1.0
  N  N206  1  0.34780000  0.30400000  0.11700000  1.0
  N  N207  1  0.40010000  0.44250000  0.85800000  1.0
