# generated using pymatgen
data_Cd3H4(C5O4)4
_symmetry_space_group_name_H-M   'P 1'
_cell_length_a   20.78030000
_cell_length_b   7.91540000
_cell_length_c   17.29900000
_cell_angle_alpha   90.00000000
_cell_angle_beta   90.00000000
_cell_angle_gamma   90.00000000
_symmetry_Int_Tables_number   1
_chemical_formula_structural   Cd3H4(C5O4)4
_chemical_formula_sum   'Cd12 H16 C80 O64'
_cell_volume   2845.41540414
_cell_formula_units_Z   4
loop_
 _symmetry_equiv_pos_site_id
 _symmetry_equiv_pos_as_xyz
  1  'x, y, z'
loop_
 _atom_site_type_symbol
 _atom_site_label
 _atom_site_symmetry_multiplicity
 _atom_site_fract_x
 _atom_site_fract_y
 _atom_site_fract_z
 _atom_site_occupancy
  Cd  Cd0  1  0.50000000  0.00000000  0.25000000  1.0
  Cd  Cd1  1  0.00000000  0.50000000  0.75000000  1.0
  Cd  Cd2  1  0.50000000  0.00000000  0.75000000  1.0
  Cd  Cd3  1  0.00000000  0.50000000  0.25000000  1.0
  Cd  Cd4  1  0.30182000  0.00000000  0.25000000  1.0
  Cd  Cd5  1  0.69818000  0.00000000  0.25000000  1.0
  Cd  Cd6  1  0.19818000  0.50000000  0.75000000  1.0
  Cd  Cd7  1  0.80182000  0.50000000  0.75000000  1.0
  Cd  Cd8  1  0.69818000  0.00000000  0.75000000  1.0
  Cd  Cd9  1  0.19818000  0.50000000  0.25000000  1.0
  Cd  Cd10  1  0.30182000  0.00000000  0.75000000  1.0
  Cd  Cd11  1  0.80182000  0.50000000  0.25000000  1.0
  H  H12  1  0.26230000  0.40260000  0.50000000  1.0
  H  H13  1  0.44290000  0.06720000  0.50000000  1.0
  H  H14  1  0.76230000  0.90260000  0.00000000  1.0
  H  H15  1  0.94290000  0.56720000  0.00000000  1.0
  H  H16  1  0.73770000  0.59740000  0.50000000  1.0
  H  H17  1  0.55710000  0.93280000  0.50000000  1.0
  H  H18  1  0.23770000  0.09740000  0.00000000  1.0
  H  H19  1  0.05710000  0.43280000  0.00000000  1.0
  H  H20  1  0.23770000  0.90260000  0.50000000  1.0
  H  H21  1  0.05710000  0.56720000  0.50000000  1.0
  H  H22  1  0.73770000  0.40260000  0.00000000  1.0
  H  H23  1  0.55710000  0.06720000  0.00000000  1.0
  H  H24  1  0.76230000  0.09740000  0.50000000  1.0
  H  H25  1  0.94290000  0.43280000  0.50000000  1.0
  H  H26  1  0.26230000  0.59740000  0.00000000  1.0
  H  H27  1  0.44290000  0.93280000  0.00000000  1.0
  C  C28  1  0.32330000  0.27570000  0.42990000  1.0
  C  C29  1  0.37840000  0.17420000  0.43010000  1.0
  C  C30  1  0.29350000  0.33300000  0.35540000  1.0
  C  C31  1  0.41250000  0.10950000  0.35970000  1.0
  C  C32  1  0.82330000  0.77570000  0.92990000  1.0
  C  C33  1  0.87840000  0.67420000  0.93010000  1.0
  C  C34  1  0.79350000  0.83300000  0.85540000  1.0
  C  C35  1  0.91250000  0.60950000  0.85970000  1.0
  C  C36  1  0.67670000  0.72430000  0.42990000  1.0
  C  C37  1  0.62160000  0.82580000  0.43010000  1.0
  C  C38  1  0.70650000  0.66700000  0.35540000  1.0
  C  C39  1  0.58750000  0.89050000  0.35970000  1.0
  C  C40  1  0.17670000  0.22430000  0.92990000  1.0
  C  C41  1  0.12160000  0.32580000  0.93010000  1.0
  C  C42  1  0.20650000  0.16700000  0.85540000  1.0
  C  C43  1  0.08750000  0.39050000  0.85970000  1.0
  C  C44  1  0.17670000  0.77570000  0.57010000  1.0
  C  C45  1  0.12160000  0.67420000  0.56990000  1.0
  C  C46  1  0.20650000  0.83300000  0.64460000  1.0
  C  C47  1  0.08750000  0.60950000  0.64030000  1.0
  C  C48  1  0.67670000  0.27570000  0.07010000  1.0
  C  C49  1  0.62160000  0.17420000  0.06990000  1.0
  C  C50  1  0.70650000  0.33300000  0.14460000  1.0
  C  C51  1  0.58750000  0.10950000  0.14030000  1.0
  C  C52  1  0.82330000  0.22430000  0.57010000  1.0
  C  C53  1  0.87840000  0.32580000  0.56990000  1.0
  C  C54  1  0.79350000  0.16700000  0.64460000  1.0
  C  C55  1  0.91250000  0.39050000  0.64030000  1.0
  C  C56  1  0.32330000  0.72430000  0.07010000  1.0
  C  C57  1  0.37840000  0.82580000  0.06990000  1.0
  C  C58  1  0.29350000  0.66700000  0.14460000  1.0
  C  C59  1  0.41250000  0.89050000  0.14030000  1.0
  C  C60  1  0.67670000  0.72430000  0.57010000  1.0
  C  C61  1  0.62160000  0.82580000  0.56990000  1.0
  C  C62  1  0.70650000  0.66700000  0.64460000  1.0
  C  C63  1  0.58750000  0.89050000  0.64030000  1.0
  C  C64  1  0.17670000  0.22430000  0.07010000  1.0
  C  C65  1  0.12160000  0.32580000  0.06990000  1.0
  C  C66  1  0.20650000  0.16700000  0.14460000  1.0
  C  C67  1  0.08750000  0.39050000  0.14030000  1.0
  C  C68  1  0.32330000  0.27570000  0.57010000  1.0
  C  C69  1  0.37840000  0.17420000  0.56990000  1.0
  C  C70  1  0.29350000  0.33300000  0.64460000  1.0
  C  C71  1  0.41250000  0.10950000  0.64030000  1.0
  C  C72  1  0.82330000  0.77570000  0.07010000  1.0
  C  C73  1  0.87840000  0.67420000  0.06990000  1.0
  C  C74  1  0.79350000  0.83300000  0.14460000  1.0
  C  C75  1  0.91250000  0.60950000  0.14030000  1.0
  C  C76  1  0.82330000  0.22430000  0.42990000  1.0
  C  C77  1  0.87840000  0.32580000  0.43010000  1.0
  C  C78  1  0.79350000  0.16700000  0.35540000  1.0
  C  C79  1  0.91250000  0.39050000  0.35970000  1.0
  C  C80  1  0.32330000  0.72430000  0.92990000  1.0
  C  C81  1  0.37840000  0.82580000  0.93010000  1.0
  C  C82  1  0.29350000  0.66700000  0.85540000  1.0
  C  C83  1  0.41250000  0.89050000  0.85970000  1.0
  C  C84  1  0.17670000  0.77570000  0.42990000  1.0
  C  C85  1  0.12160000  0.67420000  0.43010000  1.0
  C  C86  1  0.20650000  0.83300000  0.35540000  1.0
  C  C87  1  0.08750000  0.60950000  0.35970000  1.0
  C  C88  1  0.67670000  0.27570000  0.92990000  1.0
  C  C89  1  0.62160000  0.17420000  0.93010000  1.0
  C  C90  1  0.70650000  0.33300000  0.85540000  1.0
  C  C91  1  0.58750000  0.10950000  0.85970000  1.0
  C  C92  1  0.29740000  0.32960000  0.50000000  1.0
  C  C93  1  0.40510000  0.12990000  0.50000000  1.0
  C  C94  1  0.79740000  0.82960000  0.00000000  1.0
  C  C95  1  0.90510000  0.62990000  0.00000000  1.0
  C  C96  1  0.70260000  0.67040000  0.50000000  1.0
  C  C97  1  0.59490000  0.87010000  0.50000000  1.0
  C  C98  1  0.20260000  0.17040000  0.00000000  1.0
  C  C99  1  0.09490000  0.37010000  0.00000000  1.0
  C  C100  1  0.20260000  0.82960000  0.50000000  1.0
  C  C101  1  0.09490000  0.62990000  0.50000000  1.0
  C  C102  1  0.70260000  0.32960000  0.00000000  1.0
  C  C103  1  0.59490000  0.12990000  0.00000000  1.0
  C  C104  1  0.79740000  0.17040000  0.50000000  1.0
  C  C105  1  0.90510000  0.37010000  0.50000000  1.0
  C  C106  1  0.29740000  0.67040000  0.00000000  1.0
  C  C107  1  0.40510000  0.87010000  0.00000000  1.0
  O  O108  1  0.24540000  0.43100000  0.36000000  1.0
  O  O109  1  0.31520000  0.27970000  0.29240000  1.0
  O  O110  1  0.39310000  0.97560000  0.33040000  1.0
  O  O111  1  0.46240000  0.18610000  0.33890000  1.0
  O  O112  1  0.74540000  0.93100000  0.86000000  1.0
  O  O113  1  0.81520000  0.77970000  0.79240000  1.0
  O  O114  1  0.89310000  0.47560000  0.83040000  1.0
  O  O115  1  0.96240000  0.68610000  0.83890000  1.0
  O  O116  1  0.75460000  0.56900000  0.36000000  1.0
  O  O117  1  0.68480000  0.72030000  0.29240000  1.0
  O  O118  1  0.60690000  0.02440000  0.33040000  1.0
  O  O119  1  0.53760000  0.81390000  0.33890000  1.0
  O  O120  1  0.25460000  0.06900000  0.86000000  1.0
  O  O121  1  0.18480000  0.22030000  0.79240000  1.0
  O  O122  1  0.10690000  0.52440000  0.83040000  1.0
  O  O123  1  0.03760000  0.31390000  0.83890000  1.0
  O  O124  1  0.25460000  0.93100000  0.64000000  1.0
  O  O125  1  0.18480000  0.77970000  0.70760000  1.0
  O  O126  1  0.10690000  0.47560000  0.66960000  1.0
  O  O127  1  0.03760000  0.68610000  0.66110000  1.0
  O  O128  1  0.75460000  0.43100000  0.14000000  1.0
  O  O129  1  0.68480000  0.27970000  0.20760000  1.0
  O  O130  1  0.60690000  0.97560000  0.16960000  1.0
  O  O131  1  0.53760000  0.18610000  0.16110000  1.0
  O  O132  1  0.74540000  0.06900000  0.64000000  1.0
  O  O133  1  0.81520000  0.22030000  0.70760000  1.0
  O  O134  1  0.89310000  0.52440000  0.66960000  1.0
  O  O135  1  0.96240000  0.31390000  0.66110000  1.0
  O  O136  1  0.24540000  0.56900000  0.14000000  1.0
  O  O137  1  0.31520000  0.72030000  0.20760000  1.0
  O  O138  1  0.39310000  0.02440000  0.16960000  1.0
  O  O139  1  0.46240000  0.81390000  0.16110000  1.0
  O  O140  1  0.75460000  0.56900000  0.64000000  1.0
  O  O141  1  0.68480000  0.72030000  0.70760000  1.0
  O  O142  1  0.60690000  0.02440000  0.66960000  1.0
  O  O143  1  0.53760000  0.81390000  0.66110000  1.0
  O  O144  1  0.25460000  0.06900000  0.14000000  1.0
  O  O145  1  0.18480000  0.22030000  0.20760000  1.0
  O  O146  1  0.10690000  0.52440000  0.16960000  1.0
  O  O147  1  0.03760000  0.31390000  0.16110000  1.0
  O  O148  1  0.24540000  0.43100000  0.64000000  1.0
  O  O149  1  0.31520000  0.27970000  0.70760000  1.0
  O  O150  1  0.39310000  0.97560000  0.66960000  1.0
  O  O151  1  0.46240000  0.18610000  0.66110000  1.0
  O  O152  1  0.74540000  0.93100000  0.14000000  1.0
  O  O153  1  0.81520000  0.77970000  0.20760000  1.0
  O  O154  1  0.89310000  0.47560000  0.16960000  1.0
  O  O155  1  0.96240000  0.68610000  0.16110000  1.0
  O  O156  1  0.74540000  0.06900000  0.36000000  1.0
  O  O157  1  0.81520000  0.22030000  0.29240000  1.0
  O  O158  1  0.89310000  0.52440000  0.33040000  1.0
  O  O159  1  0.96240000  0.31390000  0.33890000  1.0
  O  O160  1  0.24540000  0.56900000  0.86000000  1.0
  O  O161  1  0.31520000  0.72030000  0.79240000  1.0
  O  O162  1  0.39310000  0.02440000  0.83040000  1.0
  O  O163  1  0.46240000  0.81390000  0.83890000  1.0
  O  O164  1  0.25460000  0.93100000  0.36000000  1.0
  O  O165  1  0.18480000  0.77970000  0.29240000  1.0
  O  O166  1  0.10690000  0.47560000  0.33040000  1.0
  O  O167  1  0.03760000  0.68610000  0.33890000  1.0
  O  O168  1  0.75460000  0.43100000  0.86000000  1.0
  O  O169  1  0.68480000  0.27970000  0.79240000  1.0
  O  O170  1  0.60690000  0.97560000  0.83040000  1.0
  O  O171  1  0.53760000  0.18610000  0.83890000  1.0
