# generated using pymatgen
data_Zn3H4C10N4O9
_symmetry_space_group_name_H-M   'P 1'
_cell_length_a   11.74370000
_cell_length_b   13.01010000
_cell_length_c   18.92510000
_cell_angle_alpha   90.00000000
_cell_angle_beta   90.00000000
_cell_angle_gamma   112.31600000
_symmetry_Int_Tables_number   1
_chemical_formula_structural   Zn3H4C10N4O9
_chemical_formula_sum   'Zn12 H16 C40 N16 O36'
_cell_volume   2674.94090846
_cell_formula_units_Z   4
loop_
 _symmetry_equiv_pos_site_id
 _symmetry_equiv_pos_as_xyz
  1  'x, y, z'
loop_
 _atom_site_type_symbol
 _atom_site_label
 _atom_site_symmetry_multiplicity
 _atom_site_fract_x
 _atom_site_fract_y
 _atom_site_fract_z
 _atom_site_occupancy
  Zn  Zn0  1  0.17610000  0.65079000  0.62815000  1.0
  Zn  Zn1  1  0.66120000  0.62255000  0.58563000  1.0
  Zn  Zn2  1  0.55602000  0.87889000  0.83179000  1.0
  Zn  Zn3  1  0.32390000  0.84921000  0.12815000  1.0
  Zn  Zn4  1  0.83880000  0.87745000  0.08563000  1.0
  Zn  Zn5  1  0.94398000  0.62111000  0.33179000  1.0
  Zn  Zn6  1  0.82390000  0.34921000  0.37185000  1.0
  Zn  Zn7  1  0.33880000  0.37745000  0.41437000  1.0
  Zn  Zn8  1  0.44398000  0.12111000  0.16821000  1.0
  Zn  Zn9  1  0.67610000  0.15079000  0.87185000  1.0
  Zn  Zn10  1  0.16120000  0.12255000  0.91437000  1.0
  Zn  Zn11  1  0.05602000  0.37889000  0.66821000  1.0
  H  H12  1  0.16070000  0.62170000  0.45210000  1.0
  H  H13  1  0.23680000  0.53390000  0.70540000  1.0
  H  H14  1  0.12180000  0.54790000  0.73640000  1.0
  H  H15  1  0.69750000  0.72880000  0.75020000  1.0
  H  H16  1  0.33930000  0.87830000  0.95210000  1.0
  H  H17  1  0.26320000  0.96610000  0.20540000  1.0
  H  H18  1  0.37820000  0.95210000  0.23640000  1.0
  H  H19  1  0.80250000  0.77120000  0.25020000  1.0
  H  H20  1  0.83930000  0.37830000  0.54790000  1.0
  H  H21  1  0.76320000  0.46610000  0.29460000  1.0
  H  H22  1  0.87820000  0.45210000  0.26360000  1.0
  H  H23  1  0.30250000  0.27120000  0.24980000  1.0
  H  H24  1  0.66070000  0.12170000  0.04790000  1.0
  H  H25  1  0.73680000  0.03390000  0.79460000  1.0
  H  H26  1  0.62180000  0.04790000  0.76360000  1.0
  H  H27  1  0.19750000  0.22880000  0.74980000  1.0
  C  C28  1  0.09260000  0.63130000  0.47150000  1.0
  C  C29  1  0.42360000  0.65330000  0.58200000  1.0
  C  C30  1  0.62740000  0.72860000  0.72730000  1.0
  C  C31  1  0.45910000  0.75310000  0.70560000  1.0
  C  C32  1  0.36680000  0.80320000  0.72240000  1.0
  C  C33  1  0.48320000  0.69690000  0.65000000  1.0
  C  C34  1  0.91790000  0.64830000  0.48090000  1.0
  C  C35  1  0.92920000  0.66470000  0.62030000  1.0
  C  C36  1  0.96570000  0.65100000  0.54790000  1.0
  C  C37  1  0.80510000  0.66030000  0.45080000  1.0
  C  C38  1  0.40740000  0.86870000  0.97150000  1.0
  C  C39  1  0.07640000  0.84670000  0.08200000  1.0
  C  C40  1  0.87260000  0.77140000  0.22730000  1.0
  C  C41  1  0.04090000  0.74690000  0.20560000  1.0
  C  C42  1  0.13320000  0.69680000  0.22240000  1.0
  C  C43  1  0.01680000  0.80310000  0.15000000  1.0
  C  C44  1  0.58210000  0.85170000  0.98090000  1.0
  C  C45  1  0.57080000  0.83530000  0.12030000  1.0
  C  C46  1  0.53430000  0.84900000  0.04790000  1.0
  C  C47  1  0.69490000  0.83970000  0.95080000  1.0
  C  C48  1  0.90740000  0.36870000  0.52850000  1.0
  C  C49  1  0.57640000  0.34670000  0.41800000  1.0
  C  C50  1  0.37260000  0.27140000  0.27270000  1.0
  C  C51  1  0.54090000  0.24690000  0.29440000  1.0
  C  C52  1  0.63320000  0.19680000  0.27760000  1.0
  C  C53  1  0.51680000  0.30310000  0.35000000  1.0
  C  C54  1  0.08210000  0.35170000  0.51910000  1.0
  C  C55  1  0.07080000  0.33530000  0.37970000  1.0
  C  C56  1  0.03430000  0.34900000  0.45210000  1.0
  C  C57  1  0.19490000  0.33970000  0.54920000  1.0
  C  C58  1  0.59260000  0.13130000  0.02850000  1.0
  C  C59  1  0.92360000  0.15330000  0.91800000  1.0
  C  C60  1  0.12740000  0.22860000  0.77270000  1.0
  C  C61  1  0.95910000  0.25310000  0.79440000  1.0
  C  C62  1  0.86680000  0.30320000  0.77760000  1.0
  C  C63  1  0.98320000  0.19690000  0.85000000  1.0
  C  C64  1  0.41790000  0.14830000  0.01910000  1.0
  C  C65  1  0.42920000  0.16470000  0.87970000  1.0
  C  C66  1  0.46570000  0.15100000  0.95210000  1.0
  C  C67  1  0.30510000  0.16030000  0.04920000  1.0
  N  N68  1  0.07810000  0.64170000  0.53970000  1.0
  N  N69  1  0.59010000  0.68300000  0.66420000  1.0
  N  N70  1  0.55230000  0.77390000  0.75370000  1.0
  N  N71  1  0.99870000  0.63580000  0.43300000  1.0
  N  N72  1  0.42190000  0.85830000  0.03970000  1.0
  N  N73  1  0.90990000  0.81700000  0.16420000  1.0
  N  N74  1  0.94770000  0.72610000  0.25370000  1.0
  N  N75  1  0.50130000  0.86420000  0.93300000  1.0
  N  N76  1  0.92190000  0.35830000  0.46030000  1.0
  N  N77  1  0.40990000  0.31700000  0.33580000  1.0
  N  N78  1  0.44770000  0.22610000  0.24630000  1.0
  N  N79  1  0.00130000  0.36420000  0.56700000  1.0
  N  N80  1  0.57810000  0.14170000  0.96030000  1.0
  N  N81  1  0.09010000  0.18300000  0.83580000  1.0
  N  N82  1  0.05230000  0.27390000  0.74630000  1.0
  N  N83  1  0.49870000  0.13580000  0.06700000  1.0
  O  O84  1  0.32000000  0.65260000  0.56620000  1.0
  O  O85  1  0.48620000  0.61840000  0.54130000  1.0
  O  O86  1  0.38540000  0.86060000  0.77770000  1.0
  O  O87  1  0.27660000  0.78950000  0.68180000  1.0
  O  O88  1  0.15580000  0.53060000  0.69310000  1.0
  O  O89  1  0.00890000  0.67360000  0.66700000  1.0
  O  O90  1  0.82670000  0.66770000  0.63520000  1.0
  O  O91  1  0.72540000  0.67390000  0.49060000  1.0
  O  O92  1  0.79740000  0.65770000  0.38430000  1.0
  O  O93  1  0.18000000  0.84740000  0.06620000  1.0
  O  O94  1  0.01380000  0.88160000  0.04130000  1.0
  O  O95  1  0.11460000  0.63940000  0.27770000  1.0
  O  O96  1  0.22340000  0.71050000  0.18180000  1.0
  O  O97  1  0.34420000  0.96940000  0.19310000  1.0
  O  O98  1  0.49110000  0.82640000  0.16700000  1.0
  O  O99  1  0.67330000  0.83230000  0.13520000  1.0
  O  O100  1  0.77460000  0.82610000  0.99060000  1.0
  O  O101  1  0.70260000  0.84230000  0.88430000  1.0
  O  O102  1  0.68000000  0.34740000  0.43380000  1.0
  O  O103  1  0.51380000  0.38160000  0.45870000  1.0
  O  O104  1  0.61460000  0.13940000  0.22230000  1.0
  O  O105  1  0.72340000  0.21050000  0.31820000  1.0
  O  O106  1  0.84420000  0.46940000  0.30690000  1.0
  O  O107  1  0.99110000  0.32640000  0.33300000  1.0
  O  O108  1  0.17330000  0.33230000  0.36480000  1.0
  O  O109  1  0.27460000  0.32610000  0.50940000  1.0
  O  O110  1  0.20260000  0.34230000  0.61570000  1.0
  O  O111  1  0.82000000  0.15260000  0.93380000  1.0
  O  O112  1  0.98620000  0.11840000  0.95870000  1.0
  O  O113  1  0.88540000  0.36060000  0.72230000  1.0
  O  O114  1  0.77660000  0.28950000  0.81820000  1.0
  O  O115  1  0.65580000  0.03060000  0.80690000  1.0
  O  O116  1  0.50890000  0.17360000  0.83300000  1.0
  O  O117  1  0.32670000  0.16770000  0.86480000  1.0
  O  O118  1  0.22540000  0.17390000  0.00940000  1.0
  O  O119  1  0.29740000  0.15770000  0.11570000  1.0
