# generated using pymatgen
data_CsKMo6P4H22C10N2O23
_symmetry_space_group_name_H-M   'P 1'
_cell_length_a   17.06270000
_cell_length_b   18.88610000
_cell_length_c   31.64380000
_cell_angle_alpha   90.00000000
_cell_angle_beta   90.00000000
_cell_angle_gamma   90.00000000
_symmetry_Int_Tables_number   1
_chemical_formula_structural   CsKMo6P4H22C10N2O23
_chemical_formula_sum   'Cs8 K8 Mo48 P32 H176 C80 N16 O184'
_cell_volume   10197.14678385
_cell_formula_units_Z   8
loop_
 _symmetry_equiv_pos_site_id
 _symmetry_equiv_pos_as_xyz
  1  'x, y, z'
loop_
 _atom_site_type_symbol
 _atom_site_label
 _atom_site_symmetry_multiplicity
 _atom_site_fract_x
 _atom_site_fract_y
 _atom_site_fract_z
 _atom_site_occupancy
  Cs  Cs0  1  0.56131000  0.60049000  0.81380000  1.0
  Cs  Cs1  1  0.43869000  0.89951000  0.31380000  1.0
  Cs  Cs2  1  0.06131000  0.39951000  0.68620000  1.0
  Cs  Cs3  1  0.93869000  0.10049000  0.18620000  1.0
  Cs  Cs4  1  0.43869000  0.39951000  0.18620000  1.0
  Cs  Cs5  1  0.56131000  0.10049000  0.68620000  1.0
  Cs  Cs6  1  0.93869000  0.60049000  0.31380000  1.0
  Cs  Cs7  1  0.06131000  0.89951000  0.81380000  1.0
  K  K8  1  0.86090000  0.28067000  0.77894000  1.0
  K  K9  1  0.13910000  0.21933000  0.27894000  1.0
  K  K10  1  0.36090000  0.71933000  0.72106000  1.0
  K  K11  1  0.63910000  0.78067000  0.22106000  1.0
  K  K12  1  0.13910000  0.71933000  0.22106000  1.0
  K  K13  1  0.86090000  0.78067000  0.72106000  1.0
  K  K14  1  0.63910000  0.28067000  0.27894000  1.0
  K  K15  1  0.36090000  0.21933000  0.77894000  1.0
  Mo  Mo16  1  0.73714000  0.44847000  0.79974000  1.0
  Mo  Mo17  1  0.91811000  0.47627000  0.78001000  1.0
  Mo  Mo18  1  0.92545000  0.58494000  0.67978000  1.0
  Mo  Mo19  1  0.86979000  0.72198000  0.60654000  1.0
  Mo  Mo20  1  0.87718000  0.81654000  0.50133000  1.0
  Mo  Mo21  1  0.61079000  0.69832000  0.92951000  1.0
  Mo  Mo22  1  0.26286000  0.05153000  0.29974000  1.0
  Mo  Mo23  1  0.08189000  0.02373000  0.28001000  1.0
  Mo  Mo24  1  0.07456000  0.91506000  0.17978000  1.0
  Mo  Mo25  1  0.13021000  0.77802000  0.10654000  1.0
  Mo  Mo26  1  0.12282000  0.68346000  0.00133000  1.0
  Mo  Mo27  1  0.38921000  0.80168000  0.42951000  1.0
  Mo  Mo28  1  0.23714000  0.55153000  0.70026000  1.0
  Mo  Mo29  1  0.41811000  0.52373000  0.71999000  1.0
  Mo  Mo30  1  0.42544000  0.41506000  0.82022000  1.0
  Mo  Mo31  1  0.36979000  0.27802000  0.89346000  1.0
  Mo  Mo32  1  0.37718000  0.18346000  0.99867000  1.0
  Mo  Mo33  1  0.11079000  0.30168000  0.57049000  1.0
  Mo  Mo34  1  0.76286000  0.94847000  0.20026000  1.0
  Mo  Mo35  1  0.58189000  0.97627000  0.21999000  1.0
  Mo  Mo36  1  0.57455000  0.08494000  0.32022000  1.0
  Mo  Mo37  1  0.63021000  0.22198000  0.39346000  1.0
  Mo  Mo38  1  0.62282000  0.31654000  0.49867000  1.0
  Mo  Mo39  1  0.88921000  0.19832000  0.07049000  1.0
  Mo  Mo40  1  0.26286000  0.55153000  0.20026000  1.0
  Mo  Mo41  1  0.08189000  0.52373000  0.21999000  1.0
  Mo  Mo42  1  0.07456000  0.41506000  0.32022000  1.0
  Mo  Mo43  1  0.13021000  0.27802000  0.39346000  1.0
  Mo  Mo44  1  0.12282000  0.18346000  0.49867000  1.0
  Mo  Mo45  1  0.38921000  0.30168000  0.07049000  1.0
  Mo  Mo46  1  0.73714000  0.94847000  0.70026000  1.0
  Mo  Mo47  1  0.91811000  0.97627000  0.71999000  1.0
  Mo  Mo48  1  0.92545000  0.08494000  0.82022000  1.0
  Mo  Mo49  1  0.86979000  0.22198000  0.89346000  1.0
  Mo  Mo50  1  0.87718000  0.31654000  0.99867000  1.0
  Mo  Mo51  1  0.61079000  0.19832000  0.57049000  1.0
  Mo  Mo52  1  0.76286000  0.44847000  0.29974000  1.0
  Mo  Mo53  1  0.58189000  0.47627000  0.28001000  1.0
  Mo  Mo54  1  0.57455000  0.58494000  0.17978000  1.0
  Mo  Mo55  1  0.63021000  0.72198000  0.10654000  1.0
  Mo  Mo56  1  0.62282000  0.81654000  0.00133000  1.0
  Mo  Mo57  1  0.88921000  0.69832000  0.42951000  1.0
  Mo  Mo58  1  0.23714000  0.05153000  0.79974000  1.0
  Mo  Mo59  1  0.41811000  0.02373000  0.78001000  1.0
  Mo  Mo60  1  0.42544000  0.91506000  0.67978000  1.0
  Mo  Mo61  1  0.36979000  0.77802000  0.60654000  1.0
  Mo  Mo62  1  0.37718000  0.68346000  0.50133000  1.0
  Mo  Mo63  1  0.11079000  0.80168000  0.92951000  1.0
  P  P64  1  0.77059000  0.59895000  0.75025000  1.0
  P  P65  1  0.77916000  0.46475000  0.69932000  1.0
  P  P66  1  0.79294000  0.64942000  0.51441000  1.0
  P  P67  1  0.96815000  0.65534000  0.52146000  1.0
  P  P68  1  0.22941000  0.90105000  0.25025000  1.0
  P  P69  1  0.22084000  0.03525000  0.19932000  1.0
  P  P70  1  0.20706000  0.85058000  0.01441000  1.0
  P  P71  1  0.03185000  0.84466000  0.02146000  1.0
  P  P72  1  0.27059000  0.40105000  0.74975000  1.0
  P  P73  1  0.27916000  0.53525000  0.80068000  1.0
  P  P74  1  0.29294000  0.35058000  0.98559000  1.0
  P  P75  1  0.46815000  0.34466000  0.97854000  1.0
  P  P76  1  0.72941000  0.09895000  0.24975000  1.0
  P  P77  1  0.72084000  0.96475000  0.30068000  1.0
  P  P78  1  0.70706000  0.14942000  0.48559000  1.0
  P  P79  1  0.53185000  0.15534000  0.47854000  1.0
  P  P80  1  0.22941000  0.40105000  0.24975000  1.0
  P  P81  1  0.22084000  0.53525000  0.30068000  1.0
  P  P82  1  0.20706000  0.35058000  0.48559000  1.0
  P  P83  1  0.03185000  0.34466000  0.47854000  1.0
  P  P84  1  0.77059000  0.09895000  0.74975000  1.0
  P  P85  1  0.77916000  0.96475000  0.80068000  1.0
  P  P86  1  0.79294000  0.14942000  0.98559000  1.0
  P  P87  1  0.96815000  0.15534000  0.97854000  1.0
  P  P88  1  0.72941000  0.59895000  0.25025000  1.0
  P  P89  1  0.72084000  0.46475000  0.19932000  1.0
  P  P90  1  0.70706000  0.64942000  0.01441000  1.0
  P  P91  1  0.53185000  0.65534000  0.02146000  1.0
  P  P92  1  0.27059000  0.90105000  0.75025000  1.0
  P  P93  1  0.27916000  0.03525000  0.69932000  1.0
  P  P94  1  0.29294000  0.85058000  0.51441000  1.0
  P  P95  1  0.46815000  0.84466000  0.52146000  1.0
  H  H96  1  0.62510000  0.51910000  0.67840000  1.0
  H  H97  1  0.61070000  0.58370000  0.70840000  1.0
  H  H98  1  0.69910000  0.65270000  0.67080000  1.0
  H  H99  1  0.72430000  0.58740000  0.64320000  1.0
  H  H100  1  0.60330000  0.58330000  0.61110000  1.0
  H  H101  1  0.56990000  0.64060000  0.64210000  1.0
  H  H102  1  0.68760000  0.67110000  0.58660000  1.0
  H  H103  1  0.64510000  0.72280000  0.61170000  1.0
  H  H104  1  0.58240000  0.65150000  0.54470000  1.0
  H  H105  1  0.60350000  0.73230000  0.54460000  1.0
  H  H106  1  0.53410000  0.70460000  0.57250000  1.0
  H  H107  1  0.84870000  0.49860000  0.49910000  1.0
  H  H108  1  0.93740000  0.50600000  0.51070000  1.0
  H  H109  1  0.89540000  0.54450000  0.58000000  1.0
  H  H110  1  0.81090000  0.52010000  0.56720000  1.0
  H  H111  1  0.94140000  0.43020000  0.57670000  1.0
  H  H112  1  0.86760000  0.43120000  0.60620000  1.0
  H  H113  1  0.87330000  0.38010000  0.52580000  1.0
  H  H114  1  0.79800000  0.39680000  0.54460000  1.0
  H  H115  1  0.89570000  0.29450000  0.57570000  1.0
  H  H116  1  0.82030000  0.27830000  0.54910000  1.0
  H  H117  1  0.81260000  0.31130000  0.59430000  1.0
  H  H118  1  0.37490000  0.98090000  0.17840000  1.0
  H  H119  1  0.38930000  0.91630000  0.20840000  1.0
  H  H120  1  0.30090000  0.84730000  0.17080000  1.0
  H  H121  1  0.27570000  0.91260000  0.14320000  1.0
  H  H122  1  0.39670000  0.91670000  0.11110000  1.0
  H  H123  1  0.43010000  0.85940000  0.14210000  1.0
  H  H124  1  0.31240000  0.82890000  0.08660000  1.0
  H  H125  1  0.35490000  0.77720000  0.11170000  1.0
  H  H126  1  0.41760000  0.84850000  0.04470000  1.0
  H  H127  1  0.39650000  0.76770000  0.04460000  1.0
  H  H128  1  0.46590000  0.79540000  0.07250000  1.0
  H  H129  1  0.15130000  0.00140000  0.99910000  1.0
  H  H130  1  0.06260000  0.99400000  0.01070000  1.0
  H  H131  1  0.10460000  0.95550000  0.08000000  1.0
  H  H132  1  0.18910000  0.97990000  0.06720000  1.0
  H  H133  1  0.05860000  0.06980000  0.07670000  1.0
  H  H134  1  0.13240000  0.06880000  0.10620000  1.0
  H  H135  1  0.12670000  0.11990000  0.02580000  1.0
  H  H136  1  0.20200000  0.10320000  0.04460000  1.0
  H  H137  1  0.10430000  0.20550000  0.07570000  1.0
  H  H138  1  0.17970000  0.22170000  0.04910000  1.0
  H  H139  1  0.18740000  0.18870000  0.09430000  1.0
  H  H140  1  0.12510000  0.48090000  0.82160000  1.0
  H  H141  1  0.11070000  0.41630000  0.79160000  1.0
  H  H142  1  0.19910000  0.34730000  0.82920000  1.0
  H  H143  1  0.22430000  0.41260000  0.85680000  1.0
  H  H144  1  0.10330000  0.41670000  0.88890000  1.0
  H  H145  1  0.06990000  0.35940000  0.85790000  1.0
  H  H146  1  0.18760000  0.32890000  0.91340000  1.0
  H  H147  1  0.14510000  0.27720000  0.88830000  1.0
  H  H148  1  0.08240000  0.34850000  0.95530000  1.0
  H  H149  1  0.10350000  0.26770000  0.95540000  1.0
  H  H150  1  0.03410000  0.29540000  0.92750000  1.0
  H  H151  1  0.34870000  0.50140000  0.00090000  1.0
  H  H152  1  0.43740000  0.49400000  0.98930000  1.0
  H  H153  1  0.39540000  0.45550000  0.92000000  1.0
  H  H154  1  0.31090000  0.47990000  0.93280000  1.0
  H  H155  1  0.44140000  0.56980000  0.92330000  1.0
  H  H156  1  0.36760000  0.56880000  0.89380000  1.0
  H  H157  1  0.37330000  0.61990000  0.97420000  1.0
  H  H158  1  0.29800000  0.60320000  0.95540000  1.0
  H  H159  1  0.39570000  0.70550000  0.92430000  1.0
  H  H160  1  0.32030000  0.72170000  0.95090000  1.0
  H  H161  1  0.31260000  0.68870000  0.90570000  1.0
  H  H162  1  0.87490000  0.01910000  0.32160000  1.0
  H  H163  1  0.88930000  0.08370000  0.29160000  1.0
  H  H164  1  0.80090000  0.15270000  0.32920000  1.0
  H  H165  1  0.77570000  0.08740000  0.35680000  1.0
  H  H166  1  0.89670000  0.08330000  0.38890000  1.0
  H  H167  1  0.93010000  0.14060000  0.35790000  1.0
  H  H168  1  0.81240000  0.17110000  0.41340000  1.0
  H  H169  1  0.85490000  0.22280000  0.38830000  1.0
  H  H170  1  0.91760000  0.15150000  0.45530000  1.0
  H  H171  1  0.89650000  0.23230000  0.45540000  1.0
  H  H172  1  0.96590000  0.20460000  0.42750000  1.0
  H  H173  1  0.65130000  0.99860000  0.50090000  1.0
  H  H174  1  0.56260000  0.00600000  0.48930000  1.0
  H  H175  1  0.60460000  0.04450000  0.42000000  1.0
  H  H176  1  0.68910000  0.02010000  0.43280000  1.0
  H  H177  1  0.55860000  0.93020000  0.42330000  1.0
  H  H178  1  0.63240000  0.93120000  0.39380000  1.0
  H  H179  1  0.62670000  0.88010000  0.47420000  1.0
  H  H180  1  0.70200000  0.89680000  0.45540000  1.0
  H  H181  1  0.60430000  0.79450000  0.42430000  1.0
  H  H182  1  0.67970000  0.77830000  0.45090000  1.0
  H  H183  1  0.68740000  0.81130000  0.40570000  1.0
  H  H184  1  0.37490000  0.48090000  0.32160000  1.0
  H  H185  1  0.38930000  0.41630000  0.29160000  1.0
  H  H186  1  0.30090000  0.34730000  0.32920000  1.0
  H  H187  1  0.27570000  0.41260000  0.35680000  1.0
  H  H188  1  0.39670000  0.41670000  0.38890000  1.0
  H  H189  1  0.43010000  0.35940000  0.35790000  1.0
  H  H190  1  0.31240000  0.32890000  0.41340000  1.0
  H  H191  1  0.35490000  0.27720000  0.38830000  1.0
  H  H192  1  0.41760000  0.34850000  0.45530000  1.0
  H  H193  1  0.39650000  0.26770000  0.45540000  1.0
  H  H194  1  0.46590000  0.29540000  0.42750000  1.0
  H  H195  1  0.15130000  0.50140000  0.50090000  1.0
  H  H196  1  0.06260000  0.49400000  0.48930000  1.0
  H  H197  1  0.10460000  0.45550000  0.42000000  1.0
  H  H198  1  0.18910000  0.47990000  0.43280000  1.0
  H  H199  1  0.05860000  0.56980000  0.42330000  1.0
  H  H200  1  0.13240000  0.56880000  0.39380000  1.0
  H  H201  1  0.12670000  0.61990000  0.47420000  1.0
  H  H202  1  0.20200000  0.60320000  0.45540000  1.0
  H  H203  1  0.10430000  0.70550000  0.42430000  1.0
  H  H204  1  0.17970000  0.72170000  0.45090000  1.0
  H  H205  1  0.18740000  0.68870000  0.40570000  1.0
  H  H206  1  0.62510000  0.01910000  0.82160000  1.0
  H  H207  1  0.61070000  0.08370000  0.79160000  1.0
  H  H208  1  0.69910000  0.15270000  0.82920000  1.0
  H  H209  1  0.72430000  0.08740000  0.85680000  1.0
  H  H210  1  0.60330000  0.08330000  0.88890000  1.0
  H  H211  1  0.56990000  0.14060000  0.85790000  1.0
  H  H212  1  0.68760000  0.17110000  0.91340000  1.0
  H  H213  1  0.64510000  0.22280000  0.88830000  1.0
  H  H214  1  0.58240000  0.15150000  0.95530000  1.0
  H  H215  1  0.60350000  0.23230000  0.95540000  1.0
  H  H216  1  0.53410000  0.20460000  0.92750000  1.0
  H  H217  1  0.84870000  0.99860000  0.00090000  1.0
  H  H218  1  0.93740000  0.00600000  0.98930000  1.0
  H  H219  1  0.89540000  0.04450000  0.92000000  1.0
  H  H220  1  0.81090000  0.02010000  0.93280000  1.0
  H  H221  1  0.94140000  0.93020000  0.92330000  1.0
  H  H222  1  0.86760000  0.93120000  0.89380000  1.0
  H  H223  1  0.87330000  0.88010000  0.97420000  1.0
  H  H224  1  0.79800000  0.89680000  0.95540000  1.0
  H  H225  1  0.89570000  0.79450000  0.92430000  1.0
  H  H226  1  0.82030000  0.77830000  0.95090000  1.0
  H  H227  1  0.81260000  0.81130000  0.90570000  1.0
  H  H228  1  0.87490000  0.51910000  0.17840000  1.0
  H  H229  1  0.88930000  0.58370000  0.20840000  1.0
  H  H230  1  0.80090000  0.65270000  0.17080000  1.0
  H  H231  1  0.77570000  0.58740000  0.14320000  1.0
  H  H232  1  0.89670000  0.58330000  0.11110000  1.0
  H  H233  1  0.93010000  0.64060000  0.14210000  1.0
  H  H234  1  0.81240000  0.67110000  0.08660000  1.0
  H  H235  1  0.85490000  0.72280000  0.11170000  1.0
  H  H236  1  0.91760000  0.65150000  0.04470000  1.0
  H  H237  1  0.89650000  0.73230000  0.04460000  1.0
  H  H238  1  0.96590000  0.70460000  0.07250000  1.0
  H  H239  1  0.65130000  0.49860000  0.99910000  1.0
  H  H240  1  0.56260000  0.50600000  0.01070000  1.0
  H  H241  1  0.60460000  0.54450000  0.08000000  1.0
  H  H242  1  0.68910000  0.52010000  0.06720000  1.0
  H  H243  1  0.55860000  0.43020000  0.07670000  1.0
  H  H244  1  0.63240000  0.43120000  0.10620000  1.0
  H  H245  1  0.62670000  0.38010000  0.02580000  1.0
  H  H246  1  0.70200000  0.39680000  0.04460000  1.0
  H  H247  1  0.60430000  0.29450000  0.07570000  1.0
  H  H248  1  0.67970000  0.27830000  0.04910000  1.0
  H  H249  1  0.68740000  0.31130000  0.09430000  1.0
  H  H250  1  0.12510000  0.98090000  0.67840000  1.0
  H  H251  1  0.11070000  0.91630000  0.70840000  1.0
  H  H252  1  0.19910000  0.84730000  0.67080000  1.0
  H  H253  1  0.22430000  0.91260000  0.64320000  1.0
  H  H254  1  0.10330000  0.91670000  0.61110000  1.0
  H  H255  1  0.06990000  0.85940000  0.64210000  1.0
  H  H256  1  0.18760000  0.82890000  0.58660000  1.0
  H  H257  1  0.14510000  0.77720000  0.61170000  1.0
  H  H258  1  0.08240000  0.84850000  0.54470000  1.0
  H  H259  1  0.10350000  0.76770000  0.54460000  1.0
  H  H260  1  0.03410000  0.79540000  0.57250000  1.0
  H  H261  1  0.34870000  0.00140000  0.49910000  1.0
  H  H262  1  0.43740000  0.99400000  0.51070000  1.0
  H  H263  1  0.39540000  0.95550000  0.58000000  1.0
  H  H264  1  0.31090000  0.97990000  0.56720000  1.0
  H  H265  1  0.44140000  0.06980000  0.57670000  1.0
  H  H266  1  0.36760000  0.06880000  0.60620000  1.0
  H  H267  1  0.37330000  0.11990000  0.52580000  1.0
  H  H268  1  0.29800000  0.10320000  0.54460000  1.0
  H  H269  1  0.39570000  0.20550000  0.57570000  1.0
  H  H270  1  0.32030000  0.22170000  0.54910000  1.0
  H  H271  1  0.31260000  0.18870000  0.59430000  1.0
  C  C272  1  0.71290000  0.53100000  0.72227000  1.0
  C  C273  1  0.65030000  0.55910000  0.69199000  1.0
  C  C274  1  0.68060000  0.60920000  0.65785000  1.0
  C  C275  1  0.61640000  0.62570000  0.62688000  1.0
  C  C276  1  0.58520000  0.69360000  0.56162000  1.0
  C  C277  1  0.88370000  0.60244000  0.50278000  1.0
  C  C278  1  0.88560000  0.52479000  0.51642000  1.0
  C  C279  1  0.86630000  0.51120000  0.56275000  1.0
  C  C280  1  0.88510000  0.43700000  0.57729000  1.0
  C  C281  1  0.84360000  0.31030000  0.56903000  1.0
  C  C282  1  0.28710000  0.96900000  0.22227000  1.0
  C  C283  1  0.34970000  0.94090000  0.19199000  1.0
  C  C284  1  0.31940000  0.89080000  0.15785000  1.0
  C  C285  1  0.38360000  0.87430000  0.12688000  1.0
  C  C286  1  0.41480000  0.80640000  0.06162000  1.0
  C  C287  1  0.11630000  0.89756000  0.00278000  1.0
  C  C288  1  0.11440000  0.97521000  0.01642000  1.0
  C  C289  1  0.13370000  0.98880000  0.06275000  1.0
  C  C290  1  0.11490000  0.06300000  0.07729000  1.0
  C  C291  1  0.15640000  0.18970000  0.06903000  1.0
  C  C292  1  0.21290000  0.46900000  0.77773000  1.0
  C  C293  1  0.15030000  0.44090000  0.80801000  1.0
  C  C294  1  0.18060000  0.39080000  0.84215000  1.0
  C  C295  1  0.11640000  0.37430000  0.87312000  1.0
  C  C296  1  0.08520000  0.30640000  0.93838000  1.0
  C  C297  1  0.38370000  0.39756000  0.99722000  1.0
  C  C298  1  0.38560000  0.47521000  0.98358000  1.0
  C  C299  1  0.36630000  0.48880000  0.93725000  1.0
  C  C300  1  0.38510000  0.56300000  0.92271000  1.0
  C  C301  1  0.34360000  0.68970000  0.93097000  1.0
  C  C302  1  0.78710000  0.03100000  0.27773000  1.0
  C  C303  1  0.84970000  0.05910000  0.30801000  1.0
  C  C304  1  0.81940000  0.10920000  0.34215000  1.0
  C  C305  1  0.88360000  0.12570000  0.37312000  1.0
  C  C306  1  0.91480000  0.19360000  0.43838000  1.0
  C  C307  1  0.61630000  0.10244000  0.49722000  1.0
  C  C308  1  0.61440000  0.02479000  0.48358000  1.0
  C  C309  1  0.63370000  0.01120000  0.43725000  1.0
  C  C310  1  0.61490000  0.93700000  0.42271000  1.0
  C  C311  1  0.65640000  0.81030000  0.43097000  1.0
  C  C312  1  0.28710000  0.46900000  0.27773000  1.0
  C  C313  1  0.34970000  0.44090000  0.30801000  1.0
  C  C314  1  0.31940000  0.39080000  0.34215000  1.0
  C  C315  1  0.38360000  0.37430000  0.37312000  1.0
  C  C316  1  0.41480000  0.30640000  0.43838000  1.0
  C  C317  1  0.11630000  0.39756000  0.49722000  1.0
  C  C318  1  0.11440000  0.47521000  0.48358000  1.0
  C  C319  1  0.13370000  0.48880000  0.43725000  1.0
  C  C320  1  0.11490000  0.56300000  0.42271000  1.0
  C  C321  1  0.15640000  0.68970000  0.43097000  1.0
  C  C322  1  0.71290000  0.03100000  0.77773000  1.0
  C  C323  1  0.65030000  0.05910000  0.80801000  1.0
  C  C324  1  0.68060000  0.10920000  0.84215000  1.0
  C  C325  1  0.61640000  0.12570000  0.87312000  1.0
  C  C326  1  0.58520000  0.19360000  0.93838000  1.0
  C  C327  1  0.88370000  0.10244000  0.99722000  1.0
  C  C328  1  0.88560000  0.02479000  0.98358000  1.0
  C  C329  1  0.86630000  0.01120000  0.93725000  1.0
  C  C330  1  0.88510000  0.93700000  0.92271000  1.0
  C  C331  1  0.84360000  0.81030000  0.93097000  1.0
  C  C332  1  0.78710000  0.53100000  0.22227000  1.0
  C  C333  1  0.84970000  0.55910000  0.19199000  1.0
  C  C334  1  0.81940000  0.60920000  0.15785000  1.0
  C  C335  1  0.88360000  0.62570000  0.12688000  1.0
  C  C336  1  0.91480000  0.69360000  0.06162000  1.0
  C  C337  1  0.61630000  0.60244000  0.00278000  1.0
  C  C338  1  0.61440000  0.52479000  0.01642000  1.0
  C  C339  1  0.63370000  0.51120000  0.06275000  1.0
  C  C340  1  0.61490000  0.43700000  0.07729000  1.0
  C  C341  1  0.65640000  0.31030000  0.06903000  1.0
  C  C342  1  0.21290000  0.96900000  0.72227000  1.0
  C  C343  1  0.15030000  0.94090000  0.69199000  1.0
  C  C344  1  0.18060000  0.89080000  0.65785000  1.0
  C  C345  1  0.11640000  0.87430000  0.62688000  1.0
  C  C346  1  0.08520000  0.80640000  0.56162000  1.0
  C  C347  1  0.38370000  0.89756000  0.50278000  1.0
  C  C348  1  0.38560000  0.97521000  0.51642000  1.0
  C  C349  1  0.36630000  0.98880000  0.56275000  1.0
  C  C350  1  0.38510000  0.06300000  0.57729000  1.0
  C  C351  1  0.34360000  0.18970000  0.56903000  1.0
  N  N352  1  0.64019000  0.68206000  0.59720000  1.0
  N  N353  1  0.84720000  0.38254000  0.55044000  1.0
  N  N354  1  0.35981000  0.81794000  0.09720000  1.0
  N  N355  1  0.15280000  0.11746000  0.05044000  1.0
  N  N356  1  0.14019000  0.31794000  0.90280000  1.0
  N  N357  1  0.34720000  0.61746000  0.94956000  1.0
  N  N358  1  0.85981000  0.18206000  0.40280000  1.0
  N  N359  1  0.65280000  0.88254000  0.44956000  1.0
  N  N360  1  0.35981000  0.31794000  0.40280000  1.0
  N  N361  1  0.15280000  0.61746000  0.44956000  1.0
  N  N362  1  0.64019000  0.18206000  0.90280000  1.0
  N  N363  1  0.84720000  0.88254000  0.94956000  1.0
  N  N364  1  0.85981000  0.68206000  0.09720000  1.0
  N  N365  1  0.65280000  0.38254000  0.05044000  1.0
  N  N366  1  0.14019000  0.81794000  0.59720000  1.0
  N  N367  1  0.34720000  0.11746000  0.55044000  1.0
  O  O368  1  0.69110000  0.48530000  0.84209000  1.0
  O  O369  1  0.83863000  0.43228000  0.81926000  1.0
  O  O370  1  0.67376000  0.49345000  0.75584000  1.0
  O  O371  1  0.81653000  0.43411000  0.74052000  1.0
  O  O372  1  0.80872000  0.55217000  0.78538000  1.0
  O  O373  1  0.97108000  0.40025000  0.77293000  1.0
  O  O374  1  0.94521000  0.52817000  0.73359000  1.0
  O  O375  1  0.98935000  0.53613000  0.64984000  1.0
  O  O376  1  0.87202000  0.63445000  0.63704000  1.0
  O  O377  1  0.83914000  0.50210000  0.67176000  1.0
  O  O378  1  0.83171000  0.62959000  0.72059000  1.0
  O  O379  1  0.87248000  0.79002000  0.55745000  1.0
  O  O380  1  0.95632000  0.67104000  0.56792000  1.0
  O  O381  1  0.78916000  0.66598000  0.56115000  1.0
  O  O382  1  0.61455000  0.79588000  0.93919000  1.0
  O  O383  1  0.95941000  0.72187000  0.49289000  1.0
  O  O384  1  0.80488000  0.71740000  0.48726000  1.0
  O  O385  1  0.52870000  0.68910000  0.89893000  1.0
  O  O386  1  0.89073000  0.60603000  0.45732000  1.0
  O  O387  1  0.71783000  0.65396000  0.76956000  1.0
  O  O388  1  0.73220000  0.40868000  0.67745000  1.0
  O  O389  1  0.72421000  0.60694000  0.49915000  1.0
  O  O390  1  0.04430000  0.61785000  0.51306000  1.0
  O  O391  1  0.30890000  0.01470000  0.34209000  1.0
  O  O392  1  0.16137000  0.06772000  0.31926000  1.0
  O  O393  1  0.32624000  0.00655000  0.25584000  1.0
  O  O394  1  0.18347000  0.06589000  0.24052000  1.0
  O  O395  1  0.19128000  0.94783000  0.28538000  1.0
  O  O396  1  0.02892000  0.09975000  0.27293000  1.0
  O  O397  1  0.05479000  0.97183000  0.23359000  1.0
  O  O398  1  0.01065000  0.96387000  0.14984000  1.0
  O  O399  1  0.12798000  0.86555000  0.13704000  1.0
  O  O400  1  0.16086000  0.99790000  0.17176000  1.0
  O  O401  1  0.16829000  0.87041000  0.22059000  1.0
  O  O402  1  0.12752000  0.70998000  0.05745000  1.0
  O  O403  1  0.04368000  0.82896000  0.06792000  1.0
  O  O404  1  0.21084000  0.83402000  0.06115000  1.0
  O  O405  1  0.38545000  0.70412000  0.43919000  1.0
  O  O406  1  0.04059000  0.77813000  0.99289000  1.0
  O  O407  1  0.19512000  0.78260000  0.98726000  1.0
  O  O408  1  0.47130000  0.81090000  0.39893000  1.0
  O  O409  1  0.10927000  0.89397000  0.95732000  1.0
  O  O410  1  0.28217000  0.84604000  0.26956000  1.0
  O  O411  1  0.26780000  0.09132000  0.17745000  1.0
  O  O412  1  0.27579000  0.89306000  0.99915000  1.0
  O  O413  1  0.95570000  0.88215000  0.01306000  1.0
  O  O414  1  0.19110000  0.51470000  0.65791000  1.0
  O  O415  1  0.33863000  0.56772000  0.68074000  1.0
  O  O416  1  0.17376000  0.50655000  0.74416000  1.0
  O  O417  1  0.31653000  0.56589000  0.75948000  1.0
  O  O418  1  0.30872000  0.44783000  0.71462000  1.0
  O  O419  1  0.47108000  0.59975000  0.72707000  1.0
  O  O420  1  0.44521000  0.47183000  0.76641000  1.0
  O  O421  1  0.48935000  0.46387000  0.85016000  1.0
  O  O422  1  0.37202000  0.36555000  0.86296000  1.0
  O  O423  1  0.33914000  0.49790000  0.82824000  1.0
  O  O424  1  0.33171000  0.37041000  0.77941000  1.0
  O  O425  1  0.37248000  0.20998000  0.94255000  1.0
  O  O426  1  0.45632000  0.32896000  0.93208000  1.0
  O  O427  1  0.28916000  0.33402000  0.93885000  1.0
  O  O428  1  0.11455000  0.20412000  0.56081000  1.0
  O  O429  1  0.45941000  0.27813000  0.00711000  1.0
  O  O430  1  0.30488000  0.28260000  0.01274000  1.0
  O  O431  1  0.02870000  0.31090000  0.60107000  1.0
  O  O432  1  0.39073000  0.39397000  0.04268000  1.0
  O  O433  1  0.21783000  0.34604000  0.73044000  1.0
  O  O434  1  0.23220000  0.59132000  0.82255000  1.0
  O  O435  1  0.22421000  0.39306000  0.00085000  1.0
  O  O436  1  0.54430000  0.38215000  0.98694000  1.0
  O  O437  1  0.80890000  0.98530000  0.15791000  1.0
  O  O438  1  0.66137000  0.93228000  0.18074000  1.0
  O  O439  1  0.82624000  0.99345000  0.24416000  1.0
  O  O440  1  0.68347000  0.93411000  0.25948000  1.0
  O  O441  1  0.69128000  0.05217000  0.21462000  1.0
  O  O442  1  0.52892000  0.90025000  0.22707000  1.0
  O  O443  1  0.55479000  0.02817000  0.26641000  1.0
  O  O444  1  0.51065000  0.03613000  0.35016000  1.0
  O  O445  1  0.62798000  0.13445000  0.36296000  1.0
  O  O446  1  0.66086000  0.00210000  0.32824000  1.0
  O  O447  1  0.66829000  0.12959000  0.27941000  1.0
  O  O448  1  0.62752000  0.29002000  0.44255000  1.0
  O  O449  1  0.54368000  0.17104000  0.43208000  1.0
  O  O450  1  0.71084000  0.16598000  0.43885000  1.0
  O  O451  1  0.88545000  0.29588000  0.06081000  1.0
  O  O452  1  0.54059000  0.22187000  0.50711000  1.0
  O  O453  1  0.69512000  0.21740000  0.51274000  1.0
  O  O454  1  0.97130000  0.18910000  0.10107000  1.0
  O  O455  1  0.60927000  0.10603000  0.54268000  1.0
  O  O456  1  0.78217000  0.15396000  0.23044000  1.0
  O  O457  1  0.76780000  0.90868000  0.32255000  1.0
  O  O458  1  0.77579000  0.10694000  0.50085000  1.0
  O  O459  1  0.45570000  0.11785000  0.48694000  1.0
  O  O460  1  0.30890000  0.51470000  0.15791000  1.0
  O  O461  1  0.16137000  0.56772000  0.18074000  1.0
  O  O462  1  0.32624000  0.50655000  0.24416000  1.0
  O  O463  1  0.18347000  0.56589000  0.25948000  1.0
  O  O464  1  0.19128000  0.44783000  0.21462000  1.0
  O  O465  1  0.02892000  0.59975000  0.22707000  1.0
  O  O466  1  0.05479000  0.47183000  0.26641000  1.0
  O  O467  1  0.01065000  0.46387000  0.35016000  1.0
  O  O468  1  0.12798000  0.36555000  0.36296000  1.0
  O  O469  1  0.16086000  0.49790000  0.32824000  1.0
  O  O470  1  0.16829000  0.37041000  0.27941000  1.0
  O  O471  1  0.12752000  0.20998000  0.44255000  1.0
  O  O472  1  0.04368000  0.32896000  0.43208000  1.0
  O  O473  1  0.21084000  0.33402000  0.43885000  1.0
  O  O474  1  0.38545000  0.20412000  0.06081000  1.0
  O  O475  1  0.04059000  0.27813000  0.50711000  1.0
  O  O476  1  0.19512000  0.28260000  0.51274000  1.0
  O  O477  1  0.47130000  0.31090000  0.10107000  1.0
  O  O478  1  0.10927000  0.39397000  0.54268000  1.0
  O  O479  1  0.28217000  0.34604000  0.23044000  1.0
  O  O480  1  0.26780000  0.59132000  0.32255000  1.0
  O  O481  1  0.27579000  0.39306000  0.50085000  1.0
  O  O482  1  0.95570000  0.38215000  0.48694000  1.0
  O  O483  1  0.69110000  0.98530000  0.65791000  1.0
  O  O484  1  0.83863000  0.93228000  0.68074000  1.0
  O  O485  1  0.67376000  0.99345000  0.74416000  1.0
  O  O486  1  0.81653000  0.93411000  0.75948000  1.0
  O  O487  1  0.80872000  0.05217000  0.71462000  1.0
  O  O488  1  0.97108000  0.90025000  0.72707000  1.0
  O  O489  1  0.94521000  0.02817000  0.76641000  1.0
  O  O490  1  0.98935000  0.03613000  0.85016000  1.0
  O  O491  1  0.87202000  0.13445000  0.86296000  1.0
  O  O492  1  0.83914000  0.00210000  0.82824000  1.0
  O  O493  1  0.83171000  0.12959000  0.77941000  1.0
  O  O494  1  0.87248000  0.29002000  0.94255000  1.0
  O  O495  1  0.95632000  0.17104000  0.93208000  1.0
  O  O496  1  0.78916000  0.16598000  0.93885000  1.0
  O  O497  1  0.61455000  0.29588000  0.56081000  1.0
  O  O498  1  0.95941000  0.22187000  0.00711000  1.0
  O  O499  1  0.80488000  0.21740000  0.01274000  1.0
  O  O500  1  0.52870000  0.18910000  0.60107000  1.0
  O  O501  1  0.89073000  0.10603000  0.04268000  1.0
  O  O502  1  0.71783000  0.15396000  0.73044000  1.0
  O  O503  1  0.73220000  0.90868000  0.82255000  1.0
  O  O504  1  0.72421000  0.10694000  0.00085000  1.0
  O  O505  1  0.04430000  0.11785000  0.98694000  1.0
  O  O506  1  0.80890000  0.48530000  0.34209000  1.0
  O  O507  1  0.66137000  0.43228000  0.31926000  1.0
  O  O508  1  0.82624000  0.49345000  0.25584000  1.0
  O  O509  1  0.68347000  0.43411000  0.24052000  1.0
  O  O510  1  0.69128000  0.55217000  0.28538000  1.0
  O  O511  1  0.52892000  0.40025000  0.27293000  1.0
  O  O512  1  0.55479000  0.52817000  0.23359000  1.0
  O  O513  1  0.51065000  0.53613000  0.14984000  1.0
  O  O514  1  0.62798000  0.63445000  0.13704000  1.0
  O  O515  1  0.66086000  0.50210000  0.17176000  1.0
  O  O516  1  0.66829000  0.62959000  0.22059000  1.0
  O  O517  1  0.62752000  0.79002000  0.05745000  1.0
  O  O518  1  0.54368000  0.67104000  0.06792000  1.0
  O  O519  1  0.71084000  0.66598000  0.06115000  1.0
  O  O520  1  0.88545000  0.79588000  0.43919000  1.0
  O  O521  1  0.54059000  0.72187000  0.99289000  1.0
  O  O522  1  0.69512000  0.71740000  0.98726000  1.0
  O  O523  1  0.97130000  0.68910000  0.39893000  1.0
  O  O524  1  0.60927000  0.60603000  0.95732000  1.0
  O  O525  1  0.78217000  0.65396000  0.26956000  1.0
  O  O526  1  0.76780000  0.40868000  0.17745000  1.0
  O  O527  1  0.77579000  0.60694000  0.99915000  1.0
  O  O528  1  0.45570000  0.61785000  0.01306000  1.0
  O  O529  1  0.19110000  0.01470000  0.84209000  1.0
  O  O530  1  0.33863000  0.06772000  0.81926000  1.0
  O  O531  1  0.17376000  0.00655000  0.75584000  1.0
  O  O532  1  0.31653000  0.06589000  0.74052000  1.0
  O  O533  1  0.30872000  0.94783000  0.78538000  1.0
  O  O534  1  0.47108000  0.09975000  0.77293000  1.0
  O  O535  1  0.44521000  0.97183000  0.73359000  1.0
  O  O536  1  0.48935000  0.96387000  0.64984000  1.0
  O  O537  1  0.37202000  0.86555000  0.63704000  1.0
  O  O538  1  0.33914000  0.99790000  0.67176000  1.0
  O  O539  1  0.33171000  0.87041000  0.72059000  1.0
  O  O540  1  0.37248000  0.70998000  0.55745000  1.0
  O  O541  1  0.45632000  0.82896000  0.56792000  1.0
  O  O542  1  0.28916000  0.83402000  0.56115000  1.0
  O  O543  1  0.11455000  0.70412000  0.93919000  1.0
  O  O544  1  0.45941000  0.77813000  0.49289000  1.0
  O  O545  1  0.30488000  0.78260000  0.48726000  1.0
  O  O546  1  0.02870000  0.81090000  0.89893000  1.0
  O  O547  1  0.39073000  0.89397000  0.45732000  1.0
  O  O548  1  0.21783000  0.84604000  0.76956000  1.0
  O  O549  1  0.23220000  0.09132000  0.67745000  1.0
  O  O550  1  0.22421000  0.89306000  0.49915000  1.0
  O  O551  1  0.54430000  0.88215000  0.51306000  1.0
