# generated using pymatgen
data_Zr3H22C43(O2F3)8
_symmetry_space_group_name_H-M   'P 1'
_cell_length_a   22.89950000
_cell_length_b   22.89950000
_cell_length_c   19.02010000
_cell_angle_alpha   90.00000000
_cell_angle_beta   90.00000000
_cell_angle_gamma   90.00000000
_symmetry_Int_Tables_number   1
_chemical_formula_structural   Zr3H22C43(O2F3)8
_chemical_formula_sum   'Zr12 H88 C172 O64 F96'
_cell_volume   9973.89508547
_cell_formula_units_Z   4
loop_
 _symmetry_equiv_pos_site_id
 _symmetry_equiv_pos_as_xyz
  1  'x, y, z'
loop_
 _atom_site_type_symbol
 _atom_site_label
 _atom_site_symmetry_multiplicity
 _atom_site_fract_x
 _atom_site_fract_y
 _atom_site_fract_z
 _atom_site_occupancy
  Zr  Zr0  1  0.00000000  0.42394000  0.09283000  1.0
  Zr  Zr1  1  0.00000000  0.57606000  0.09283000  1.0
  Zr  Zr2  1  0.57606000  0.00000000  0.59283000  1.0
  Zr  Zr3  1  0.42394000  0.00000000  0.59283000  1.0
  Zr  Zr4  1  0.00000000  0.42394000  0.90717000  1.0
  Zr  Zr5  1  0.00000000  0.57606000  0.90717000  1.0
  Zr  Zr6  1  0.42394000  0.00000000  0.40717000  1.0
  Zr  Zr7  1  0.57606000  0.00000000  0.40717000  1.0
  Zr  Zr8  1  0.10788000  0.50000000  0.00000000  1.0
  Zr  Zr9  1  0.89212000  0.50000000  0.00000000  1.0
  Zr  Zr10  1  0.50000000  0.10788000  0.50000000  1.0
  Zr  Zr11  1  0.50000000  0.89212000  0.50000000  1.0
  H  H12  1  0.25540000  0.40230000  0.10670000  1.0
  H  H13  1  0.19130000  0.28780000  0.29130000  1.0
  H  H14  1  0.12450000  0.33760000  0.22080000  1.0
  H  H15  1  0.32220000  0.34650000  0.17310000  1.0
  H  H16  1  0.74460000  0.59770000  0.10670000  1.0
  H  H17  1  0.80870000  0.71220000  0.29130000  1.0
  H  H18  1  0.87550000  0.66240000  0.22080000  1.0
  H  H19  1  0.67780000  0.65350000  0.17310000  1.0
  H  H20  1  0.59770000  0.25540000  0.60670000  1.0
  H  H21  1  0.71220000  0.19130000  0.79130000  1.0
  H  H22  1  0.66240000  0.12450000  0.72080000  1.0
  H  H23  1  0.65350000  0.32220000  0.67310000  1.0
  H  H24  1  0.40230000  0.74460000  0.60670000  1.0
  H  H25  1  0.28780000  0.80870000  0.79130000  1.0
  H  H26  1  0.33760000  0.87550000  0.72080000  1.0
  H  H27  1  0.34650000  0.67780000  0.67310000  1.0
  H  H28  1  0.74460000  0.40230000  0.89330000  1.0
  H  H29  1  0.80870000  0.28780000  0.70870000  1.0
  H  H30  1  0.87550000  0.33760000  0.77920000  1.0
  H  H31  1  0.67780000  0.34650000  0.82690000  1.0
  H  H32  1  0.25540000  0.59770000  0.89330000  1.0
  H  H33  1  0.19130000  0.71220000  0.70870000  1.0
  H  H34  1  0.12450000  0.66240000  0.77920000  1.0
  H  H35  1  0.32220000  0.65350000  0.82690000  1.0
  H  H36  1  0.40230000  0.25540000  0.39330000  1.0
  H  H37  1  0.28780000  0.19130000  0.20870000  1.0
  H  H38  1  0.33760000  0.12450000  0.27920000  1.0
  H  H39  1  0.34650000  0.32220000  0.32690000  1.0
  H  H40  1  0.59770000  0.74460000  0.39330000  1.0
  H  H41  1  0.71220000  0.80870000  0.20870000  1.0
  H  H42  1  0.66240000  0.87550000  0.27920000  1.0
  H  H43  1  0.65350000  0.67780000  0.32690000  1.0
  H  H44  1  0.74460000  0.59770000  0.89330000  1.0
  H  H45  1  0.80870000  0.71220000  0.70870000  1.0
  H  H46  1  0.87550000  0.66240000  0.77920000  1.0
  H  H47  1  0.67780000  0.65350000  0.82690000  1.0
  H  H48  1  0.25540000  0.40230000  0.89330000  1.0
  H  H49  1  0.19130000  0.28780000  0.70870000  1.0
  H  H50  1  0.12450000  0.33760000  0.77920000  1.0
  H  H51  1  0.32220000  0.34650000  0.82690000  1.0
  H  H52  1  0.40230000  0.74460000  0.39330000  1.0
  H  H53  1  0.28780000  0.80870000  0.20870000  1.0
  H  H54  1  0.33760000  0.87550000  0.27920000  1.0
  H  H55  1  0.34650000  0.67780000  0.32690000  1.0
  H  H56  1  0.59770000  0.25540000  0.39330000  1.0
  H  H57  1  0.71220000  0.19130000  0.20870000  1.0
  H  H58  1  0.66240000  0.12450000  0.27920000  1.0
  H  H59  1  0.65350000  0.32220000  0.32690000  1.0
  H  H60  1  0.25540000  0.59770000  0.10670000  1.0
  H  H61  1  0.19130000  0.71220000  0.29130000  1.0
  H  H62  1  0.12450000  0.66240000  0.22080000  1.0
  H  H63  1  0.32220000  0.65350000  0.17310000  1.0
  H  H64  1  0.74460000  0.40230000  0.10670000  1.0
  H  H65  1  0.80870000  0.28780000  0.29130000  1.0
  H  H66  1  0.87550000  0.33760000  0.22080000  1.0
  H  H67  1  0.67780000  0.34650000  0.17310000  1.0
  H  H68  1  0.59770000  0.74460000  0.60670000  1.0
  H  H69  1  0.71220000  0.80870000  0.79130000  1.0
  H  H70  1  0.66240000  0.87550000  0.72080000  1.0
  H  H71  1  0.65350000  0.67780000  0.67310000  1.0
  H  H72  1  0.40230000  0.25540000  0.60670000  1.0
  H  H73  1  0.28780000  0.19130000  0.79130000  1.0
  H  H74  1  0.33760000  0.12450000  0.72080000  1.0
  H  H75  1  0.34650000  0.32220000  0.67310000  1.0
  H  H76  1  0.00000000  0.41150000  0.32420000  1.0
  H  H77  1  0.00000000  0.36250000  0.44350000  1.0
  H  H78  1  0.00000000  0.41140000  0.44700000  1.0
  H  H79  1  0.00000000  0.58850000  0.32420000  1.0
  H  H80  1  0.00000000  0.63750000  0.44350000  1.0
  H  H81  1  0.00000000  0.58860000  0.44700000  1.0
  H  H82  1  0.58850000  0.00000000  0.82420000  1.0
  H  H83  1  0.63750000  0.00000000  0.94350000  1.0
  H  H84  1  0.58860000  0.00000000  0.94700000  1.0
  H  H85  1  0.41150000  0.00000000  0.82420000  1.0
  H  H86  1  0.36250000  0.00000000  0.94350000  1.0
  H  H87  1  0.41140000  0.00000000  0.94700000  1.0
  H  H88  1  0.00000000  0.41150000  0.67580000  1.0
  H  H89  1  0.00000000  0.36250000  0.55650000  1.0
  H  H90  1  0.00000000  0.41140000  0.55300000  1.0
  H  H91  1  0.00000000  0.58850000  0.67580000  1.0
  H  H92  1  0.00000000  0.63750000  0.55650000  1.0
  H  H93  1  0.00000000  0.58860000  0.55300000  1.0
  H  H94  1  0.41150000  0.00000000  0.17580000  1.0
  H  H95  1  0.36250000  0.00000000  0.05650000  1.0
  H  H96  1  0.41140000  0.00000000  0.05300000  1.0
  H  H97  1  0.58850000  0.00000000  0.17580000  1.0
  H  H98  1  0.63750000  0.00000000  0.05650000  1.0
  H  H99  1  0.58860000  0.00000000  0.05300000  1.0
  C  C100  1  0.14000000  0.40480000  0.11520000  1.0
  C  C101  1  0.18490000  0.37190000  0.15650000  1.0
  C  C102  1  0.24190000  0.37660000  0.14240000  1.0
  C  C103  1  0.28160000  0.34250000  0.18170000  1.0
  C  C104  1  0.26300000  0.30350000  0.23210000  1.0
  C  C105  1  0.20460000  0.30740000  0.25030000  1.0
  C  C106  1  0.16500000  0.33900000  0.21040000  1.0
  C  C107  1  0.34220000  0.34100000  0.15620000  1.0
  C  C108  1  0.17940000  0.27070000  0.30640000  1.0
  C  C109  1  0.86000000  0.59520000  0.11520000  1.0
  C  C110  1  0.81510000  0.62810000  0.15650000  1.0
  C  C111  1  0.75810000  0.62340000  0.14240000  1.0
  C  C112  1  0.71840000  0.65750000  0.18170000  1.0
  C  C113  1  0.73700000  0.69650000  0.23210000  1.0
  C  C114  1  0.79540000  0.69260000  0.25030000  1.0
  C  C115  1  0.83500000  0.66100000  0.21040000  1.0
  C  C116  1  0.65780000  0.65900000  0.15620000  1.0
  C  C117  1  0.82060000  0.72930000  0.30640000  1.0
  C  C118  1  0.59520000  0.14000000  0.61520000  1.0
  C  C119  1  0.62810000  0.18490000  0.65650000  1.0
  C  C120  1  0.62340000  0.24190000  0.64240000  1.0
  C  C121  1  0.65750000  0.28160000  0.68170000  1.0
  C  C122  1  0.69650000  0.26300000  0.73210000  1.0
  C  C123  1  0.69260000  0.20460000  0.75030000  1.0
  C  C124  1  0.66100000  0.16500000  0.71040000  1.0
  C  C125  1  0.65900000  0.34220000  0.65620000  1.0
  C  C126  1  0.72930000  0.17940000  0.80640000  1.0
  C  C127  1  0.40480000  0.86000000  0.61520000  1.0
  C  C128  1  0.37190000  0.81510000  0.65650000  1.0
  C  C129  1  0.37660000  0.75810000  0.64240000  1.0
  C  C130  1  0.34250000  0.71840000  0.68170000  1.0
  C  C131  1  0.30350000  0.73700000  0.73210000  1.0
  C  C132  1  0.30740000  0.79540000  0.75030000  1.0
  C  C133  1  0.33900000  0.83500000  0.71040000  1.0
  C  C134  1  0.34100000  0.65780000  0.65620000  1.0
  C  C135  1  0.27070000  0.82060000  0.80640000  1.0
  C  C136  1  0.86000000  0.40480000  0.88480000  1.0
  C  C137  1  0.81510000  0.37190000  0.84350000  1.0
  C  C138  1  0.75810000  0.37660000  0.85760000  1.0
  C  C139  1  0.71840000  0.34250000  0.81830000  1.0
  C  C140  1  0.73700000  0.30350000  0.76790000  1.0
  C  C141  1  0.79540000  0.30740000  0.74970000  1.0
  C  C142  1  0.83500000  0.33900000  0.78960000  1.0
  C  C143  1  0.65780000  0.34100000  0.84380000  1.0
  C  C144  1  0.82060000  0.27070000  0.69360000  1.0
  C  C145  1  0.14000000  0.59520000  0.88480000  1.0
  C  C146  1  0.18490000  0.62810000  0.84350000  1.0
  C  C147  1  0.24190000  0.62340000  0.85760000  1.0
  C  C148  1  0.28160000  0.65750000  0.81830000  1.0
  C  C149  1  0.26300000  0.69650000  0.76790000  1.0
  C  C150  1  0.20460000  0.69260000  0.74970000  1.0
  C  C151  1  0.16500000  0.66100000  0.78960000  1.0
  C  C152  1  0.34220000  0.65900000  0.84380000  1.0
  C  C153  1  0.17940000  0.72930000  0.69360000  1.0
  C  C154  1  0.40480000  0.14000000  0.38480000  1.0
  C  C155  1  0.37190000  0.18490000  0.34350000  1.0
  C  C156  1  0.37660000  0.24190000  0.35760000  1.0
  C  C157  1  0.34250000  0.28160000  0.31830000  1.0
  C  C158  1  0.30350000  0.26300000  0.26790000  1.0
  C  C159  1  0.30740000  0.20460000  0.24970000  1.0
  C  C160  1  0.33900000  0.16500000  0.28960000  1.0
  C  C161  1  0.34100000  0.34220000  0.34380000  1.0
  C  C162  1  0.27070000  0.17940000  0.19360000  1.0
  C  C163  1  0.59520000  0.86000000  0.38480000  1.0
  C  C164  1  0.62810000  0.81510000  0.34350000  1.0
  C  C165  1  0.62340000  0.75810000  0.35760000  1.0
  C  C166  1  0.65750000  0.71840000  0.31830000  1.0
  C  C167  1  0.69650000  0.73700000  0.26790000  1.0
  C  C168  1  0.69260000  0.79540000  0.24970000  1.0
  C  C169  1  0.66100000  0.83500000  0.28960000  1.0
  C  C170  1  0.65900000  0.65780000  0.34380000  1.0
  C  C171  1  0.72930000  0.82060000  0.19360000  1.0
  C  C172  1  0.86000000  0.59520000  0.88480000  1.0
  C  C173  1  0.81510000  0.62810000  0.84350000  1.0
  C  C174  1  0.75810000  0.62340000  0.85760000  1.0
  C  C175  1  0.71840000  0.65750000  0.81830000  1.0
  C  C176  1  0.73700000  0.69650000  0.76790000  1.0
  C  C177  1  0.79540000  0.69260000  0.74970000  1.0
  C  C178  1  0.83500000  0.66100000  0.78960000  1.0
  C  C179  1  0.65780000  0.65900000  0.84380000  1.0
  C  C180  1  0.82060000  0.72930000  0.69360000  1.0
  C  C181  1  0.14000000  0.40480000  0.88480000  1.0
  C  C182  1  0.18490000  0.37190000  0.84350000  1.0
  C  C183  1  0.24190000  0.37660000  0.85760000  1.0
  C  C184  1  0.28160000  0.34250000  0.81830000  1.0
  C  C185  1  0.26300000  0.30350000  0.76790000  1.0
  C  C186  1  0.20460000  0.30740000  0.74970000  1.0
  C  C187  1  0.16500000  0.33900000  0.78960000  1.0
  C  C188  1  0.34220000  0.34100000  0.84380000  1.0
  C  C189  1  0.17940000  0.27070000  0.69360000  1.0
  C  C190  1  0.40480000  0.86000000  0.38480000  1.0
  C  C191  1  0.37190000  0.81510000  0.34350000  1.0
  C  C192  1  0.37660000  0.75810000  0.35760000  1.0
  C  C193  1  0.34250000  0.71840000  0.31830000  1.0
  C  C194  1  0.30350000  0.73700000  0.26790000  1.0
  C  C195  1  0.30740000  0.79540000  0.24970000  1.0
  C  C196  1  0.33900000  0.83500000  0.28960000  1.0
  C  C197  1  0.34100000  0.65780000  0.34380000  1.0
  C  C198  1  0.27070000  0.82060000  0.19360000  1.0
  C  C199  1  0.59520000  0.14000000  0.38480000  1.0
  C  C200  1  0.62810000  0.18490000  0.34350000  1.0
  C  C201  1  0.62340000  0.24190000  0.35760000  1.0
  C  C202  1  0.65750000  0.28160000  0.31830000  1.0
  C  C203  1  0.69650000  0.26300000  0.26790000  1.0
  C  C204  1  0.69260000  0.20460000  0.24970000  1.0
  C  C205  1  0.66100000  0.16500000  0.28960000  1.0
  C  C206  1  0.65900000  0.34220000  0.34380000  1.0
  C  C207  1  0.72930000  0.17940000  0.19360000  1.0
  C  C208  1  0.14000000  0.59520000  0.11520000  1.0
  C  C209  1  0.18490000  0.62810000  0.15650000  1.0
  C  C210  1  0.24190000  0.62340000  0.14240000  1.0
  C  C211  1  0.28160000  0.65750000  0.18170000  1.0
  C  C212  1  0.26300000  0.69650000  0.23210000  1.0
  C  C213  1  0.20460000  0.69260000  0.25030000  1.0
  C  C214  1  0.16500000  0.66100000  0.21040000  1.0
  C  C215  1  0.34220000  0.65900000  0.15620000  1.0
  C  C216  1  0.17940000  0.72930000  0.30640000  1.0
  C  C217  1  0.86000000  0.40480000  0.11520000  1.0
  C  C218  1  0.81510000  0.37190000  0.15650000  1.0
  C  C219  1  0.75810000  0.37660000  0.14240000  1.0
  C  C220  1  0.71840000  0.34250000  0.18170000  1.0
  C  C221  1  0.73700000  0.30350000  0.23210000  1.0
  C  C222  1  0.79540000  0.30740000  0.25030000  1.0
  C  C223  1  0.83500000  0.33900000  0.21040000  1.0
  C  C224  1  0.65780000  0.34100000  0.15620000  1.0
  C  C225  1  0.82060000  0.27070000  0.30640000  1.0
  C  C226  1  0.59520000  0.86000000  0.61520000  1.0
  C  C227  1  0.62810000  0.81510000  0.65650000  1.0
  C  C228  1  0.62340000  0.75810000  0.64240000  1.0
  C  C229  1  0.65750000  0.71840000  0.68170000  1.0
  C  C230  1  0.69650000  0.73700000  0.73210000  1.0
  C  C231  1  0.69260000  0.79540000  0.75030000  1.0
  C  C232  1  0.66100000  0.83500000  0.71040000  1.0
  C  C233  1  0.65900000  0.65780000  0.65620000  1.0
  C  C234  1  0.72930000  0.82060000  0.80640000  1.0
  C  C235  1  0.40480000  0.14000000  0.61520000  1.0
  C  C236  1  0.37190000  0.18490000  0.65650000  1.0
  C  C237  1  0.37660000  0.24190000  0.64240000  1.0
  C  C238  1  0.34250000  0.28160000  0.68170000  1.0
  C  C239  1  0.30350000  0.26300000  0.73210000  1.0
  C  C240  1  0.30740000  0.20460000  0.75030000  1.0
  C  C241  1  0.33900000  0.16500000  0.71040000  1.0
  C  C242  1  0.34100000  0.34220000  0.65620000  1.0
  C  C243  1  0.27070000  0.17940000  0.80640000  1.0
  C  C244  1  0.00000000  0.44739000  0.34920000  1.0
  C  C245  1  0.00000000  0.44744000  0.42230000  1.0
  C  C246  1  0.00000000  0.55261000  0.34920000  1.0
  C  C247  1  0.00000000  0.55256000  0.42230000  1.0
  C  C248  1  0.55261000  0.00000000  0.84920000  1.0
  C  C249  1  0.55256000  0.00000000  0.92230000  1.0
  C  C250  1  0.44739000  0.00000000  0.84920000  1.0
  C  C251  1  0.44744000  0.00000000  0.92230000  1.0
  C  C252  1  0.00000000  0.44739000  0.65080000  1.0
  C  C253  1  0.00000000  0.44744000  0.57770000  1.0
  C  C254  1  0.00000000  0.55261000  0.65080000  1.0
  C  C255  1  0.00000000  0.55256000  0.57770000  1.0
  C  C256  1  0.44739000  0.00000000  0.15080000  1.0
  C  C257  1  0.44744000  0.00000000  0.07770000  1.0
  C  C258  1  0.55261000  0.00000000  0.15080000  1.0
  C  C259  1  0.55256000  0.00000000  0.07770000  1.0
  C  C260  1  0.00000000  0.50000000  0.23300000  1.0
  C  C261  1  0.00000000  0.50000000  0.31260000  1.0
  C  C262  1  0.00000000  0.50000000  0.45990000  1.0
  C  C263  1  0.50000000  0.00000000  0.73300000  1.0
  C  C264  1  0.50000000  0.00000000  0.81260000  1.0
  C  C265  1  0.50000000  0.00000000  0.95990000  1.0
  C  C266  1  0.00000000  0.50000000  0.76700000  1.0
  C  C267  1  0.00000000  0.50000000  0.68740000  1.0
  C  C268  1  0.00000000  0.50000000  0.54010000  1.0
  C  C269  1  0.50000000  0.00000000  0.26700000  1.0
  C  C270  1  0.50000000  0.00000000  0.18740000  1.0
  C  C271  1  0.50000000  0.00000000  0.04010000  1.0
  O  O272  1  0.15810000  0.44160000  0.07000000  1.0
  O  O273  1  0.08690000  0.39440000  0.13040000  1.0
  O  O274  1  0.84190000  0.55840000  0.07000000  1.0
  O  O275  1  0.91310000  0.60560000  0.13040000  1.0
  O  O276  1  0.55840000  0.15810000  0.57000000  1.0
  O  O277  1  0.60560000  0.08690000  0.63040000  1.0
  O  O278  1  0.44160000  0.84190000  0.57000000  1.0
  O  O279  1  0.39440000  0.91310000  0.63040000  1.0
  O  O280  1  0.84190000  0.44160000  0.93000000  1.0
  O  O281  1  0.91310000  0.39440000  0.86960000  1.0
  O  O282  1  0.15810000  0.55840000  0.93000000  1.0
  O  O283  1  0.08690000  0.60560000  0.86960000  1.0
  O  O284  1  0.44160000  0.15810000  0.43000000  1.0
  O  O285  1  0.39440000  0.08690000  0.36960000  1.0
  O  O286  1  0.55840000  0.84190000  0.43000000  1.0
  O  O287  1  0.60560000  0.91310000  0.36960000  1.0
  O  O288  1  0.84190000  0.55840000  0.93000000  1.0
  O  O289  1  0.91310000  0.60560000  0.86960000  1.0
  O  O290  1  0.15810000  0.44160000  0.93000000  1.0
  O  O291  1  0.08690000  0.39440000  0.86960000  1.0
  O  O292  1  0.44160000  0.84190000  0.43000000  1.0
  O  O293  1  0.39440000  0.91310000  0.36960000  1.0
  O  O294  1  0.55840000  0.15810000  0.43000000  1.0
  O  O295  1  0.60560000  0.08690000  0.36960000  1.0
  O  O296  1  0.15810000  0.55840000  0.07000000  1.0
  O  O297  1  0.08690000  0.60560000  0.13040000  1.0
  O  O298  1  0.84190000  0.44160000  0.07000000  1.0
  O  O299  1  0.91310000  0.39440000  0.13040000  1.0
  O  O300  1  0.55840000  0.84190000  0.57000000  1.0
  O  O301  1  0.60560000  0.91310000  0.63040000  1.0
  O  O302  1  0.44160000  0.15810000  0.57000000  1.0
  O  O303  1  0.39440000  0.08690000  0.63040000  1.0
  O  O304  1  0.00000000  0.44410000  0.20790000  1.0
  O  O305  1  0.00000000  0.39690000  0.45880000  1.0
  O  O306  1  0.00000000  0.55590000  0.20790000  1.0
  O  O307  1  0.00000000  0.60310000  0.45880000  1.0
  O  O308  1  0.55590000  0.00000000  0.70790000  1.0
  O  O309  1  0.60310000  0.00000000  0.95880000  1.0
  O  O310  1  0.44410000  0.00000000  0.70790000  1.0
  O  O311  1  0.39690000  0.00000000  0.95880000  1.0
  O  O312  1  0.00000000  0.44410000  0.79210000  1.0
  O  O313  1  0.00000000  0.39690000  0.54120000  1.0
  O  O314  1  0.00000000  0.55590000  0.79210000  1.0
  O  O315  1  0.00000000  0.60310000  0.54120000  1.0
  O  O316  1  0.44410000  0.00000000  0.29210000  1.0
  O  O317  1  0.39690000  0.00000000  0.04120000  1.0
  O  O318  1  0.55590000  0.00000000  0.29210000  1.0
  O  O319  1  0.60310000  0.00000000  0.04120000  1.0
  O  O320  1  0.05410000  0.42120000  0.00000000  1.0
  O  O321  1  0.94590000  0.57880000  0.00000000  1.0
  O  O322  1  0.57880000  0.05410000  0.50000000  1.0
  O  O323  1  0.42120000  0.94590000  0.50000000  1.0
  O  O324  1  0.94590000  0.42120000  0.00000000  1.0
  O  O325  1  0.05410000  0.57880000  0.00000000  1.0
  O  O326  1  0.42120000  0.05410000  0.50000000  1.0
  O  O327  1  0.57880000  0.94590000  0.50000000  1.0
  O  O328  1  0.94830000  0.50000000  0.09050000  1.0
  O  O329  1  0.05170000  0.50000000  0.09050000  1.0
  O  O330  1  0.50000000  0.94830000  0.59050000  1.0
  O  O331  1  0.50000000  0.05170000  0.59050000  1.0
  O  O332  1  0.05170000  0.50000000  0.90950000  1.0
  O  O333  1  0.94830000  0.50000000  0.90950000  1.0
  O  O334  1  0.50000000  0.94830000  0.40950000  1.0
  O  O335  1  0.50000000  0.05170000  0.40950000  1.0
  F  F336  1  0.35770000  0.37300000  0.08970000  1.0
  F  F337  1  0.39090000  0.36320000  0.19960000  1.0
  F  F338  1  0.36870000  0.28370000  0.13550000  1.0
  F  F339  1  0.17320000  0.20640000  0.29710000  1.0
  F  F340  1  0.11610000  0.28140000  0.32660000  1.0
  F  F341  1  0.20390000  0.27130000  0.37830000  1.0
  F  F342  1  0.64230000  0.62700000  0.08970000  1.0
  F  F343  1  0.60910000  0.63680000  0.19960000  1.0
  F  F344  1  0.63130000  0.71630000  0.13550000  1.0
  F  F345  1  0.82680000  0.79360000  0.29710000  1.0
  F  F346  1  0.88390000  0.71860000  0.32660000  1.0
  F  F347  1  0.79610000  0.72870000  0.37830000  1.0
  F  F348  1  0.62700000  0.35770000  0.58970000  1.0
  F  F349  1  0.63680000  0.39090000  0.69960000  1.0
  F  F350  1  0.71630000  0.36870000  0.63550000  1.0
  F  F351  1  0.79360000  0.17320000  0.79710000  1.0
  F  F352  1  0.71860000  0.11610000  0.82660000  1.0
  F  F353  1  0.72870000  0.20390000  0.87830000  1.0
  F  F354  1  0.37300000  0.64230000  0.58970000  1.0
  F  F355  1  0.36320000  0.60910000  0.69960000  1.0
  F  F356  1  0.28370000  0.63130000  0.63550000  1.0
  F  F357  1  0.20640000  0.82680000  0.79710000  1.0
  F  F358  1  0.28140000  0.88390000  0.82660000  1.0
  F  F359  1  0.27130000  0.79610000  0.87830000  1.0
  F  F360  1  0.64230000  0.37300000  0.91030000  1.0
  F  F361  1  0.60910000  0.36320000  0.80040000  1.0
  F  F362  1  0.63130000  0.28370000  0.86450000  1.0
  F  F363  1  0.82680000  0.20640000  0.70290000  1.0
  F  F364  1  0.88390000  0.28140000  0.67340000  1.0
  F  F365  1  0.79610000  0.27130000  0.62170000  1.0
  F  F366  1  0.35770000  0.62700000  0.91030000  1.0
  F  F367  1  0.39090000  0.63680000  0.80040000  1.0
  F  F368  1  0.36870000  0.71630000  0.86450000  1.0
  F  F369  1  0.17320000  0.79360000  0.70290000  1.0
  F  F370  1  0.11610000  0.71860000  0.67340000  1.0
  F  F371  1  0.20390000  0.72870000  0.62170000  1.0
  F  F372  1  0.37300000  0.35770000  0.41030000  1.0
  F  F373  1  0.36320000  0.39090000  0.30040000  1.0
  F  F374  1  0.28370000  0.36870000  0.36450000  1.0
  F  F375  1  0.20640000  0.17320000  0.20290000  1.0
  F  F376  1  0.28140000  0.11610000  0.17340000  1.0
  F  F377  1  0.27130000  0.20390000  0.12170000  1.0
  F  F378  1  0.62700000  0.64230000  0.41030000  1.0
  F  F379  1  0.63680000  0.60910000  0.30040000  1.0
  F  F380  1  0.71630000  0.63130000  0.36450000  1.0
  F  F381  1  0.79360000  0.82680000  0.20290000  1.0
  F  F382  1  0.71860000  0.88390000  0.17340000  1.0
  F  F383  1  0.72870000  0.79610000  0.12170000  1.0
  F  F384  1  0.64230000  0.62700000  0.91030000  1.0
  F  F385  1  0.60910000  0.63680000  0.80040000  1.0
  F  F386  1  0.63130000  0.71630000  0.86450000  1.0
  F  F387  1  0.82680000  0.79360000  0.70290000  1.0
  F  F388  1  0.88390000  0.71860000  0.67340000  1.0
  F  F389  1  0.79610000  0.72870000  0.62170000  1.0
  F  F390  1  0.35770000  0.37300000  0.91030000  1.0
  F  F391  1  0.39090000  0.36320000  0.80040000  1.0
  F  F392  1  0.36870000  0.28370000  0.86450000  1.0
  F  F393  1  0.17320000  0.20640000  0.70290000  1.0
  F  F394  1  0.11610000  0.28140000  0.67340000  1.0
  F  F395  1  0.20390000  0.27130000  0.62170000  1.0
  F  F396  1  0.37300000  0.64230000  0.41030000  1.0
  F  F397  1  0.36320000  0.60910000  0.30040000  1.0
  F  F398  1  0.28370000  0.63130000  0.36450000  1.0
  F  F399  1  0.20640000  0.82680000  0.20290000  1.0
  F  F400  1  0.28140000  0.88390000  0.17340000  1.0
  F  F401  1  0.27130000  0.79610000  0.12170000  1.0
  F  F402  1  0.62700000  0.35770000  0.41030000  1.0
  F  F403  1  0.63680000  0.39090000  0.30040000  1.0
  F  F404  1  0.71630000  0.36870000  0.36450000  1.0
  F  F405  1  0.79360000  0.17320000  0.20290000  1.0
  F  F406  1  0.71860000  0.11610000  0.17340000  1.0
  F  F407  1  0.72870000  0.20390000  0.12170000  1.0
  F  F408  1  0.35770000  0.62700000  0.08970000  1.0
  F  F409  1  0.39090000  0.63680000  0.19960000  1.0
  F  F410  1  0.36870000  0.71630000  0.13550000  1.0
  F  F411  1  0.17320000  0.79360000  0.29710000  1.0
  F  F412  1  0.11610000  0.71860000  0.32660000  1.0
  F  F413  1  0.20390000  0.72870000  0.37830000  1.0
  F  F414  1  0.64230000  0.37300000  0.08970000  1.0
  F  F415  1  0.60910000  0.36320000  0.19960000  1.0
  F  F416  1  0.63130000  0.28370000  0.13550000  1.0
  F  F417  1  0.82680000  0.20640000  0.29710000  1.0
  F  F418  1  0.88390000  0.28140000  0.32660000  1.0
  F  F419  1  0.79610000  0.27130000  0.37830000  1.0
  F  F420  1  0.62700000  0.64230000  0.58970000  1.0
  F  F421  1  0.63680000  0.60910000  0.69960000  1.0
  F  F422  1  0.71630000  0.63130000  0.63550000  1.0
  F  F423  1  0.79360000  0.82680000  0.79710000  1.0
  F  F424  1  0.71860000  0.88390000  0.82660000  1.0
  F  F425  1  0.72870000  0.79610000  0.87830000  1.0
  F  F426  1  0.37300000  0.35770000  0.58970000  1.0
  F  F427  1  0.36320000  0.39090000  0.69960000  1.0
  F  F428  1  0.28370000  0.36870000  0.63550000  1.0
  F  F429  1  0.20640000  0.17320000  0.79710000  1.0
  F  F430  1  0.28140000  0.11610000  0.82660000  1.0
  F  F431  1  0.27130000  0.20390000  0.87830000  1.0
