# generated using pymatgen
data_Cu2Mo6P2H32C35N6O17
_symmetry_space_group_name_H-M   'P 1'
_cell_length_a   19.11300000
_cell_length_b   18.61700000
_cell_length_c   15.95900000
_cell_angle_alpha   90.00000000
_cell_angle_beta   90.00000000
_cell_angle_gamma   90.00000000
_symmetry_Int_Tables_number   1
_chemical_formula_structural   Cu2Mo6P2H32C35N6O17
_chemical_formula_sum   'Cu8 Mo24 P8 H128 C140 N24 O68'
_cell_volume   5678.63864044
_cell_formula_units_Z   4
loop_
 _symmetry_equiv_pos_site_id
 _symmetry_equiv_pos_as_xyz
  1  'x, y, z'
loop_
 _atom_site_type_symbol
 _atom_site_label
 _atom_site_symmetry_multiplicity
 _atom_site_fract_x
 _atom_site_fract_y
 _atom_site_fract_z
 _atom_site_occupancy
  Cu  Cu0  1  0.55773000  0.02130000  0.21896000  1.0
  Cu  Cu1  1  0.94227000  0.97870000  0.71896000  1.0
  Cu  Cu2  1  0.44227000  0.52130000  0.78104000  1.0
  Cu  Cu3  1  0.05773000  0.47870000  0.28104000  1.0
  Cu  Cu4  1  0.44227000  0.97870000  0.78104000  1.0
  Cu  Cu5  1  0.05773000  0.02130000  0.28104000  1.0
  Cu  Cu6  1  0.55773000  0.47870000  0.21896000  1.0
  Cu  Cu7  1  0.94227000  0.52130000  0.71896000  1.0
  Mo  Mo8  1  0.42039000  0.90974000  0.14083000  1.0
  Mo  Mo9  1  0.46992000  0.83938000  0.32244000  1.0
  Mo  Mo10  1  0.49130000  0.83691000  0.94374000  1.0
  Mo  Mo11  1  0.07961000  0.09026000  0.64083000  1.0
  Mo  Mo12  1  0.03008000  0.16062000  0.82244000  1.0
  Mo  Mo13  1  0.00870000  0.16309000  0.44374000  1.0
  Mo  Mo14  1  0.57961000  0.40974000  0.85917000  1.0
  Mo  Mo15  1  0.53008000  0.33938000  0.67756000  1.0
  Mo  Mo16  1  0.50870000  0.33691000  0.05626000  1.0
  Mo  Mo17  1  0.92039000  0.59026000  0.35917000  1.0
  Mo  Mo18  1  0.96992000  0.66062000  0.17756000  1.0
  Mo  Mo19  1  0.99130000  0.66309000  0.55626000  1.0
  Mo  Mo20  1  0.57961000  0.09026000  0.85917000  1.0
  Mo  Mo21  1  0.53008000  0.16062000  0.67756000  1.0
  Mo  Mo22  1  0.50870000  0.16309000  0.05626000  1.0
  Mo  Mo23  1  0.92039000  0.90974000  0.35917000  1.0
  Mo  Mo24  1  0.96992000  0.83938000  0.17756000  1.0
  Mo  Mo25  1  0.99130000  0.83691000  0.55626000  1.0
  Mo  Mo26  1  0.42039000  0.59026000  0.14083000  1.0
  Mo  Mo27  1  0.46992000  0.66062000  0.32244000  1.0
  Mo  Mo28  1  0.49130000  0.66309000  0.94374000  1.0
  Mo  Mo29  1  0.07961000  0.40974000  0.64083000  1.0
  Mo  Mo30  1  0.03008000  0.33938000  0.82244000  1.0
  Mo  Mo31  1  0.00870000  0.33691000  0.44374000  1.0
  P  P32  1  0.52772000  0.75000000  0.14020000  1.0
  P  P33  1  0.84509000  0.75000000  0.30190000  1.0
  P  P34  1  0.97228000  0.25000000  0.64020000  1.0
  P  P35  1  0.65491000  0.25000000  0.80190000  1.0
  P  P36  1  0.47228000  0.25000000  0.85980000  1.0
  P  P37  1  0.15491000  0.25000000  0.69810000  1.0
  P  P38  1  0.02772000  0.75000000  0.35980000  1.0
  P  P39  1  0.34509000  0.75000000  0.19810000  1.0
  H  H40  1  0.60800000  0.98320000  0.04160000  1.0
  H  H41  1  0.80050000  0.95230000  0.21570000  1.0
  H  H42  1  0.72690000  0.00550000  0.32960000  1.0
  H  H43  1  0.66760000  0.94440000  0.32890000  1.0
  H  H44  1  0.69840000  0.12340000  0.34040000  1.0
  H  H45  1  0.68170000  0.11960000  0.24260000  1.0
  H  H46  1  0.59430000  0.18380000  0.36480000  1.0
  H  H47  1  0.57340000  0.17660000  0.26770000  1.0
  H  H48  1  0.40660000  0.07050000  0.22800000  1.0
  H  H49  1  0.32930000  0.10050000  0.33333333  1.0
  H  H50  1  0.80990000  0.92850000  0.07180000  1.0
  H  H51  1  0.71380000  0.94320000  0.98460000  1.0
  H  H52  1  0.61070000  0.07630000  0.43170000  1.0
  H  H53  1  0.59380000  0.99330000  0.41480000  1.0
  H  H54  1  0.48950000  0.08510000  0.49830000  1.0
  H  H55  1  0.37230000  0.11160000  0.47260000  1.0
  H  H56  1  0.89200000  0.01680000  0.54160000  1.0
  H  H57  1  0.69950000  0.04770000  0.71570000  1.0
  H  H58  1  0.77310000  0.99450000  0.82960000  1.0
  H  H59  1  0.83240000  0.05560000  0.82890000  1.0
  H  H60  1  0.80160000  0.87660000  0.84040000  1.0
  H  H61  1  0.81830000  0.88040000  0.74260000  1.0
  H  H62  1  0.90570000  0.81620000  0.86480000  1.0
  H  H63  1  0.92660000  0.82340000  0.76770000  1.0
  H  H64  1  0.09340000  0.92950000  0.72800000  1.0
  H  H65  1  0.17070000  0.89950000  0.83330000  1.0
  H  H66  1  0.69010000  0.07150000  0.57180000  1.0
  H  H67  1  0.78620000  0.05680000  0.48460000  1.0
  H  H68  1  0.88930000  0.92370000  0.93170000  1.0
  H  H69  1  0.90620000  0.00670000  0.91480000  1.0
  H  H70  1  0.01050000  0.91490000  0.99830000  1.0
  H  H71  1  0.12770000  0.88840000  0.97260000  1.0
  H  H72  1  0.39200000  0.48320000  0.95840000  1.0
  H  H73  1  0.19950000  0.45230000  0.78430000  1.0
  H  H74  1  0.27310000  0.50550000  0.67040000  1.0
  H  H75  1  0.33240000  0.44440000  0.67110000  1.0
  H  H76  1  0.30160000  0.62340000  0.65960000  1.0
  H  H77  1  0.31830000  0.61960000  0.75740000  1.0
  H  H78  1  0.40570000  0.68380000  0.63520000  1.0
  H  H79  1  0.42660000  0.67660000  0.73230000  1.0
  H  H80  1  0.59340000  0.57050000  0.77200000  1.0
  H  H81  1  0.67070000  0.60050000  0.66666667  1.0
  H  H82  1  0.19010000  0.42850000  0.92820000  1.0
  H  H83  1  0.28620000  0.44320000  0.01540000  1.0
  H  H84  1  0.38930000  0.57630000  0.56830000  1.0
  H  H85  1  0.40620000  0.49330000  0.58520000  1.0
  H  H86  1  0.51050000  0.58510000  0.50170000  1.0
  H  H87  1  0.62770000  0.61160000  0.52740000  1.0
  H  H88  1  0.10800000  0.51680000  0.45840000  1.0
  H  H89  1  0.30050000  0.54770000  0.28430000  1.0
  H  H90  1  0.22690000  0.49450000  0.17040000  1.0
  H  H91  1  0.16760000  0.55560000  0.17110000  1.0
  H  H92  1  0.19840000  0.37660000  0.15960000  1.0
  H  H93  1  0.18170000  0.38040000  0.25740000  1.0
  H  H94  1  0.09430000  0.31620000  0.13520000  1.0
  H  H95  1  0.07340000  0.32340000  0.23230000  1.0
  H  H96  1  0.90660000  0.42950000  0.27200000  1.0
  H  H97  1  0.82930000  0.39950000  0.16670000  1.0
  H  H98  1  0.30990000  0.57150000  0.42820000  1.0
  H  H99  1  0.21380000  0.55680000  0.51540000  1.0
  H  H100  1  0.11070000  0.42370000  0.06830000  1.0
  H  H101  1  0.09380000  0.50670000  0.08520000  1.0
  H  H102  1  0.98950000  0.41490000  0.00170000  1.0
  H  H103  1  0.87230000  0.38840000  0.02740000  1.0
  H  H104  1  0.39200000  0.01680000  0.95840000  1.0
  H  H105  1  0.19950000  0.04770000  0.78430000  1.0
  H  H106  1  0.27310000  0.99450000  0.67040000  1.0
  H  H107  1  0.33240000  0.05560000  0.67110000  1.0
  H  H108  1  0.30160000  0.87660000  0.65960000  1.0
  H  H109  1  0.31830000  0.88040000  0.75740000  1.0
  H  H110  1  0.40570000  0.81620000  0.63520000  1.0
  H  H111  1  0.42660000  0.82340000  0.73230000  1.0
  H  H112  1  0.59340000  0.92950000  0.77200000  1.0
  H  H113  1  0.67070000  0.89950000  0.66666667  1.0
  H  H114  1  0.19010000  0.07150000  0.92820000  1.0
  H  H115  1  0.28620000  0.05680000  0.01540000  1.0
  H  H116  1  0.38930000  0.92370000  0.56830000  1.0
  H  H117  1  0.40620000  0.00670000  0.58520000  1.0
  H  H118  1  0.51050000  0.91490000  0.50170000  1.0
  H  H119  1  0.62770000  0.88840000  0.52740000  1.0
  H  H120  1  0.10800000  0.98320000  0.45840000  1.0
  H  H121  1  0.30050000  0.95230000  0.28430000  1.0
  H  H122  1  0.22690000  0.00550000  0.17040000  1.0
  H  H123  1  0.16760000  0.94440000  0.17110000  1.0
  H  H124  1  0.19840000  0.12340000  0.15960000  1.0
  H  H125  1  0.18170000  0.11960000  0.25740000  1.0
  H  H126  1  0.09430000  0.18380000  0.13520000  1.0
  H  H127  1  0.07340000  0.17660000  0.23230000  1.0
  H  H128  1  0.90660000  0.07050000  0.27200000  1.0
  H  H129  1  0.82930000  0.10050000  0.16670000  1.0
  H  H130  1  0.30990000  0.92850000  0.42820000  1.0
  H  H131  1  0.21380000  0.94320000  0.51540000  1.0
  H  H132  1  0.11070000  0.07630000  0.06830000  1.0
  H  H133  1  0.09380000  0.99330000  0.08520000  1.0
  H  H134  1  0.98950000  0.08510000  0.00170000  1.0
  H  H135  1  0.87230000  0.11160000  0.02740000  1.0
  H  H136  1  0.60800000  0.51680000  0.04160000  1.0
  H  H137  1  0.80050000  0.54770000  0.21570000  1.0
  H  H138  1  0.72690000  0.49450000  0.32960000  1.0
  H  H139  1  0.66760000  0.55560000  0.32890000  1.0
  H  H140  1  0.69840000  0.37660000  0.34040000  1.0
  H  H141  1  0.68170000  0.38040000  0.24260000  1.0
  H  H142  1  0.59430000  0.31620000  0.36480000  1.0
  H  H143  1  0.57340000  0.32340000  0.26770000  1.0
  H  H144  1  0.40660000  0.42950000  0.22800000  1.0
  H  H145  1  0.32930000  0.39950000  0.33333333  1.0
  H  H146  1  0.80990000  0.57150000  0.07180000  1.0
  H  H147  1  0.71380000  0.55680000  0.98460000  1.0
  H  H148  1  0.61070000  0.42370000  0.43170000  1.0
  H  H149  1  0.59380000  0.50670000  0.41480000  1.0
  H  H150  1  0.48950000  0.41490000  0.49830000  1.0
  H  H151  1  0.37230000  0.38840000  0.47260000  1.0
  H  H152  1  0.89200000  0.48320000  0.54160000  1.0
  H  H153  1  0.69950000  0.45230000  0.71570000  1.0
  H  H154  1  0.77310000  0.50550000  0.82960000  1.0
  H  H155  1  0.83240000  0.44440000  0.82890000  1.0
  H  H156  1  0.80160000  0.62340000  0.84040000  1.0
  H  H157  1  0.81830000  0.61960000  0.74260000  1.0
  H  H158  1  0.90570000  0.68380000  0.86480000  1.0
  H  H159  1  0.92660000  0.67660000  0.76770000  1.0
  H  H160  1  0.09340000  0.57050000  0.72800000  1.0
  H  H161  1  0.17070000  0.60050000  0.83330000  1.0
  H  H162  1  0.69010000  0.42850000  0.57180000  1.0
  H  H163  1  0.78620000  0.44320000  0.48460000  1.0
  H  H164  1  0.88930000  0.57630000  0.93170000  1.0
  H  H165  1  0.90620000  0.49330000  0.91480000  1.0
  H  H166  1  0.01050000  0.58510000  0.99830000  1.0
  H  H167  1  0.12770000  0.61160000  0.97260000  1.0
  C  C168  1  0.64700000  0.97510000  0.07730000  1.0
  C  C169  1  0.69560000  0.97760000  0.21040000  1.0
  C  C170  1  0.76120000  0.95700000  0.17960000  1.0
  C  C171  1  0.68320000  0.98960000  0.30200000  1.0
  C  C172  1  0.66020000  0.11820000  0.29890000  1.0
  C  C173  1  0.61320000  0.18110000  0.30710000  1.0
  C  C174  1  0.42260000  0.07180000  0.28440000  1.0
  C  C175  1  0.37710000  0.09120000  0.34580000  1.0
  C  C176  1  0.76650000  0.94380000  0.09460000  1.0
  C  C177  1  0.71000000  0.95250000  0.04300000  1.0
  C  C178  1  0.51430000  0.06020000  0.37910000  1.0
  C  C179  1  0.58960000  0.04230000  0.39130000  1.0
  C  C180  1  0.47140000  0.08130000  0.44310000  1.0
  C  C181  1  0.40230000  0.09710000  0.42830000  1.0
  C  C182  1  0.74350000  0.78360000  0.18490000  1.0
  C  C183  1  0.65870000  0.79700000  0.17400000  1.0
  C  C184  1  0.85300000  0.02490000  0.57730000  1.0
  C  C185  1  0.80440000  0.02240000  0.71040000  1.0
  C  C186  1  0.73880000  0.04300000  0.67960000  1.0
  C  C187  1  0.81680000  0.01040000  0.80200000  1.0
  C  C188  1  0.83980000  0.88180000  0.79890000  1.0
  C  C189  1  0.88680000  0.81890000  0.80710000  1.0
  C  C190  1  0.07740000  0.92820000  0.78440000  1.0
  C  C191  1  0.12290000  0.90880000  0.84580000  1.0
  C  C192  1  0.73350000  0.05620000  0.59460000  1.0
  C  C193  1  0.79000000  0.04750000  0.54300000  1.0
  C  C194  1  0.98570000  0.93980000  0.87910000  1.0
  C  C195  1  0.91040000  0.95770000  0.89130000  1.0
  C  C196  1  0.02860000  0.91870000  0.94310000  1.0
  C  C197  1  0.09770000  0.90290000  0.92830000  1.0
  C  C198  1  0.75650000  0.21640000  0.68490000  1.0
  C  C199  1  0.84130000  0.20300000  0.67400000  1.0
  C  C200  1  0.35300000  0.47510000  0.92270000  1.0
  C  C201  1  0.30440000  0.47760000  0.78960000  1.0
  C  C202  1  0.23880000  0.45700000  0.82040000  1.0
  C  C203  1  0.31680000  0.48960000  0.69800000  1.0
  C  C204  1  0.33980000  0.61820000  0.70110000  1.0
  C  C205  1  0.38680000  0.68110000  0.69290000  1.0
  C  C206  1  0.57740000  0.57180000  0.71560000  1.0
  C  C207  1  0.62290000  0.59120000  0.65420000  1.0
  C  C208  1  0.23350000  0.44380000  0.90540000  1.0
  C  C209  1  0.29000000  0.45250000  0.95700000  1.0
  C  C210  1  0.48570000  0.56020000  0.62090000  1.0
  C  C211  1  0.41040000  0.54230000  0.60870000  1.0
  C  C212  1  0.52860000  0.58130000  0.55690000  1.0
  C  C213  1  0.59770000  0.59710000  0.57170000  1.0
  C  C214  1  0.25650000  0.28360000  0.81510000  1.0
  C  C215  1  0.34130000  0.29700000  0.82600000  1.0
  C  C216  1  0.14700000  0.52490000  0.42270000  1.0
  C  C217  1  0.19560000  0.52240000  0.28960000  1.0
  C  C218  1  0.26120000  0.54300000  0.32040000  1.0
  C  C219  1  0.18320000  0.51040000  0.19800000  1.0
  C  C220  1  0.16020000  0.38180000  0.20110000  1.0
  C  C221  1  0.11320000  0.31890000  0.19290000  1.0
  C  C222  1  0.92260000  0.42820000  0.21560000  1.0
  C  C223  1  0.87710000  0.40880000  0.15420000  1.0
  C  C224  1  0.26650000  0.55620000  0.40540000  1.0
  C  C225  1  0.21000000  0.54750000  0.45700000  1.0
  C  C226  1  0.01430000  0.43980000  0.12090000  1.0
  C  C227  1  0.08960000  0.45770000  0.10870000  1.0
  C  C228  1  0.97140000  0.41870000  0.05690000  1.0
  C  C229  1  0.90230000  0.40290000  0.07170000  1.0
  C  C230  1  0.24350000  0.71640000  0.31510000  1.0
  C  C231  1  0.15870000  0.70300000  0.32600000  1.0
  C  C232  1  0.35300000  0.02490000  0.92270000  1.0
  C  C233  1  0.30440000  0.02240000  0.78960000  1.0
  C  C234  1  0.23880000  0.04300000  0.82040000  1.0
  C  C235  1  0.31680000  0.01040000  0.69800000  1.0
  C  C236  1  0.33980000  0.88180000  0.70110000  1.0
  C  C237  1  0.38680000  0.81890000  0.69290000  1.0
  C  C238  1  0.57740000  0.92820000  0.71560000  1.0
  C  C239  1  0.62290000  0.90880000  0.65420000  1.0
  C  C240  1  0.23350000  0.05620000  0.90540000  1.0
  C  C241  1  0.29000000  0.04750000  0.95700000  1.0
  C  C242  1  0.48570000  0.93980000  0.62090000  1.0
  C  C243  1  0.41040000  0.95770000  0.60870000  1.0
  C  C244  1  0.52860000  0.91870000  0.55690000  1.0
  C  C245  1  0.59770000  0.90290000  0.57170000  1.0
  C  C246  1  0.25650000  0.21640000  0.81510000  1.0
  C  C247  1  0.34130000  0.20300000  0.82600000  1.0
  C  C248  1  0.14700000  0.97510000  0.42270000  1.0
  C  C249  1  0.19560000  0.97760000  0.28960000  1.0
  C  C250  1  0.26120000  0.95700000  0.32040000  1.0
  C  C251  1  0.18320000  0.98960000  0.19800000  1.0
  C  C252  1  0.16020000  0.11820000  0.20110000  1.0
  C  C253  1  0.11320000  0.18110000  0.19290000  1.0
  C  C254  1  0.92260000  0.07180000  0.21560000  1.0
  C  C255  1  0.87710000  0.09120000  0.15420000  1.0
  C  C256  1  0.26650000  0.94380000  0.40540000  1.0
  C  C257  1  0.21000000  0.95250000  0.45700000  1.0
  C  C258  1  0.01430000  0.06020000  0.12090000  1.0
  C  C259  1  0.08960000  0.04230000  0.10870000  1.0
  C  C260  1  0.97140000  0.08130000  0.05690000  1.0
  C  C261  1  0.90230000  0.09710000  0.07170000  1.0
  C  C262  1  0.24350000  0.78360000  0.31510000  1.0
  C  C263  1  0.15870000  0.79700000  0.32600000  1.0
  C  C264  1  0.64700000  0.52490000  0.07730000  1.0
  C  C265  1  0.69560000  0.52240000  0.21040000  1.0
  C  C266  1  0.76120000  0.54300000  0.17960000  1.0
  C  C267  1  0.68320000  0.51040000  0.30200000  1.0
  C  C268  1  0.66020000  0.38180000  0.29890000  1.0
  C  C269  1  0.61320000  0.31890000  0.30710000  1.0
  C  C270  1  0.42260000  0.42820000  0.28440000  1.0
  C  C271  1  0.37710000  0.40880000  0.34580000  1.0
  C  C272  1  0.76650000  0.55620000  0.09460000  1.0
  C  C273  1  0.71000000  0.54750000  0.04300000  1.0
  C  C274  1  0.51430000  0.43980000  0.37910000  1.0
  C  C275  1  0.58960000  0.45770000  0.39130000  1.0
  C  C276  1  0.47140000  0.41870000  0.44310000  1.0
  C  C277  1  0.40230000  0.40290000  0.42830000  1.0
  C  C278  1  0.74350000  0.71640000  0.18490000  1.0
  C  C279  1  0.65870000  0.70300000  0.17400000  1.0
  C  C280  1  0.85300000  0.47510000  0.57730000  1.0
  C  C281  1  0.80440000  0.47760000  0.71040000  1.0
  C  C282  1  0.73880000  0.45700000  0.67960000  1.0
  C  C283  1  0.81680000  0.48960000  0.80200000  1.0
  C  C284  1  0.83980000  0.61820000  0.79890000  1.0
  C  C285  1  0.88680000  0.68110000  0.80710000  1.0
  C  C286  1  0.07740000  0.57180000  0.78440000  1.0
  C  C287  1  0.12290000  0.59120000  0.84580000  1.0
  C  C288  1  0.73350000  0.44380000  0.59460000  1.0
  C  C289  1  0.79000000  0.45250000  0.54300000  1.0
  C  C290  1  0.98570000  0.56020000  0.87910000  1.0
  C  C291  1  0.91040000  0.54230000  0.89130000  1.0
  C  C292  1  0.02860000  0.58130000  0.94310000  1.0
  C  C293  1  0.09770000  0.59710000  0.92830000  1.0
  C  C294  1  0.75650000  0.28360000  0.68490000  1.0
  C  C295  1  0.84130000  0.29700000  0.67400000  1.0
  C  C296  1  0.61790000  0.75000000  0.15770000  1.0
  C  C297  1  0.75700000  0.75000000  0.26390000  1.0
  C  C298  1  0.88210000  0.25000000  0.65770000  1.0
  C  C299  1  0.74300000  0.25000000  0.76390000  1.0
  C  C300  1  0.38210000  0.25000000  0.84230000  1.0
  C  C301  1  0.24300000  0.25000000  0.73610000  1.0
  C  C302  1  0.11790000  0.75000000  0.34230000  1.0
  C  C303  1  0.25700000  0.75000000  0.23610000  1.0
  C  C304  1  0.65610000  0.25000000  0.28690000  1.0
  C  C305  1  0.84390000  0.75000000  0.78690000  1.0
  C  C306  1  0.34390000  0.75000000  0.71310000  1.0
  C  C307  1  0.15610000  0.25000000  0.21310000  1.0
  N  N308  1  0.64040000  0.98570000  0.15940000  1.0
  N  N309  1  0.48920000  0.05450000  0.30050000  1.0
  N  N310  1  0.62790000  0.04620000  0.31070000  1.0
  N  N311  1  0.85960000  0.01430000  0.65940000  1.0
  N  N312  1  0.01080000  0.94550000  0.80050000  1.0
  N  N313  1  0.87210000  0.95380000  0.81070000  1.0
  N  N314  1  0.35960000  0.48570000  0.84060000  1.0
  N  N315  1  0.51080000  0.55450000  0.69950000  1.0
  N  N316  1  0.37210000  0.54620000  0.68930000  1.0
  N  N317  1  0.14040000  0.51430000  0.34060000  1.0
  N  N318  1  0.98920000  0.44550000  0.19950000  1.0
  N  N319  1  0.12790000  0.45380000  0.18930000  1.0
  N  N320  1  0.35960000  0.01430000  0.84060000  1.0
  N  N321  1  0.51080000  0.94550000  0.69950000  1.0
  N  N322  1  0.37210000  0.95380000  0.68930000  1.0
  N  N323  1  0.14040000  0.98570000  0.34060000  1.0
  N  N324  1  0.98920000  0.05450000  0.19950000  1.0
  N  N325  1  0.12790000  0.04620000  0.18930000  1.0
  N  N326  1  0.64040000  0.51430000  0.15940000  1.0
  N  N327  1  0.48920000  0.44550000  0.30050000  1.0
  N  N328  1  0.62790000  0.45380000  0.31070000  1.0
  N  N329  1  0.85960000  0.48570000  0.65940000  1.0
  N  N330  1  0.01080000  0.55450000  0.80050000  1.0
  N  N331  1  0.87210000  0.54620000  0.81070000  1.0
  O  O332  1  0.48880000  0.97080000  0.14940000  1.0
  O  O333  1  0.40900000  0.89800000  0.25970000  1.0
  O  O334  1  0.45030000  0.88000000  0.86300000  1.0
  O  O335  1  0.49810000  0.81780000  0.17960000  1.0
  O  O336  1  0.44020000  0.87680000  0.03280000  1.0
  O  O337  1  0.85270000  0.68430000  0.35630000  1.0
  O  O338  1  0.01120000  0.02920000  0.64940000  1.0
  O  O339  1  0.09100000  0.10200000  0.75970000  1.0
  O  O340  1  0.04970000  0.12000000  0.36300000  1.0
  O  O341  1  0.00190000  0.18220000  0.67960000  1.0
  O  O342  1  0.05980000  0.12320000  0.53280000  1.0
  O  O343  1  0.64730000  0.31570000  0.85630000  1.0
  O  O344  1  0.51120000  0.47080000  0.85060000  1.0
  O  O345  1  0.59100000  0.39800000  0.74030000  1.0
  O  O346  1  0.54970000  0.38000000  0.13700000  1.0
  O  O347  1  0.50190000  0.31780000  0.82040000  1.0
  O  O348  1  0.55980000  0.37680000  0.96720000  1.0
  O  O349  1  0.14730000  0.18430000  0.64370000  1.0
  O  O350  1  0.98880000  0.52920000  0.35060000  1.0
  O  O351  1  0.90900000  0.60200000  0.24030000  1.0
  O  O352  1  0.95030000  0.62000000  0.63700000  1.0
  O  O353  1  0.99810000  0.68220000  0.32040000  1.0
  O  O354  1  0.94020000  0.62320000  0.46720000  1.0
  O  O355  1  0.35270000  0.81570000  0.14370000  1.0
  O  O356  1  0.51120000  0.02920000  0.85060000  1.0
  O  O357  1  0.59100000  0.10200000  0.74030000  1.0
  O  O358  1  0.54970000  0.12000000  0.13700000  1.0
  O  O359  1  0.50190000  0.18220000  0.82040000  1.0
  O  O360  1  0.55980000  0.12320000  0.96720000  1.0
  O  O361  1  0.14730000  0.31570000  0.64370000  1.0
  O  O362  1  0.98880000  0.97080000  0.35060000  1.0
  O  O363  1  0.90900000  0.89800000  0.24030000  1.0
  O  O364  1  0.95030000  0.88000000  0.63700000  1.0
  O  O365  1  0.99810000  0.81780000  0.32040000  1.0
  O  O366  1  0.94020000  0.87680000  0.46720000  1.0
  O  O367  1  0.35270000  0.68430000  0.14370000  1.0
  O  O368  1  0.48880000  0.52920000  0.14940000  1.0
  O  O369  1  0.40900000  0.60200000  0.25970000  1.0
  O  O370  1  0.45030000  0.62000000  0.86300000  1.0
  O  O371  1  0.49810000  0.68220000  0.17960000  1.0
  O  O372  1  0.44020000  0.62320000  0.03280000  1.0
  O  O373  1  0.85270000  0.81570000  0.35630000  1.0
  O  O374  1  0.01120000  0.47080000  0.64940000  1.0
  O  O375  1  0.09100000  0.39800000  0.75970000  1.0
  O  O376  1  0.04970000  0.38000000  0.36300000  1.0
  O  O377  1  0.00190000  0.31780000  0.67960000  1.0
  O  O378  1  0.05980000  0.37680000  0.53280000  1.0
  O  O379  1  0.64730000  0.18430000  0.85630000  1.0
  O  O380  1  0.39450000  0.75000000  0.96170000  1.0
  O  O381  1  0.89460000  0.75000000  0.22470000  1.0
  O  O382  1  0.51880000  0.75000000  0.33540000  1.0
  O  O383  1  0.51570000  0.75000000  0.88730000  1.0
  O  O384  1  0.51530000  0.75000000  0.04470000  1.0
  O  O385  1  0.10550000  0.25000000  0.46170000  1.0
  O  O386  1  0.60540000  0.25000000  0.72470000  1.0
  O  O387  1  0.98120000  0.25000000  0.83540000  1.0
  O  O388  1  0.98430000  0.25000000  0.38730000  1.0
  O  O389  1  0.98470000  0.25000000  0.54470000  1.0
  O  O390  1  0.60550000  0.25000000  0.03830000  1.0
  O  O391  1  0.10540000  0.25000000  0.77530000  1.0
  O  O392  1  0.48120000  0.25000000  0.66460000  1.0
  O  O393  1  0.48430000  0.25000000  0.11270000  1.0
  O  O394  1  0.48470000  0.25000000  0.95530000  1.0
  O  O395  1  0.89450000  0.75000000  0.53830000  1.0
  O  O396  1  0.39460000  0.75000000  0.27530000  1.0
  O  O397  1  0.01880000  0.75000000  0.16460000  1.0
  O  O398  1  0.01570000  0.75000000  0.61270000  1.0
  O  O399  1  0.01530000  0.75000000  0.45530000  1.0
