# generated using pymatgen
data_Ag7H8C26N2(OF)12
_symmetry_space_group_name_H-M   'P 1'
_cell_length_a   11.69360000
_cell_length_b   11.69360000
_cell_length_c   28.69930000
_cell_angle_alpha   90.00000000
_cell_angle_beta   90.00000000
_cell_angle_gamma   120.00000000
_symmetry_Int_Tables_number   1
_chemical_formula_structural   Ag7H8C26N2(OF)12
_chemical_formula_sum   'Ag21 H24 C78 N6 O36 F36'
_cell_volume   3398.58709243
_cell_formula_units_Z   3
loop_
 _symmetry_equiv_pos_site_id
 _symmetry_equiv_pos_as_xyz
  1  'x, y, z'
loop_
 _atom_site_type_symbol
 _atom_site_label
 _atom_site_symmetry_multiplicity
 _atom_site_fract_x
 _atom_site_fract_y
 _atom_site_fract_z
 _atom_site_occupancy
  Ag  Ag0  1  0.73361000  0.71374000  0.39594000  1.0
  Ag  Ag1  1  0.52814000  0.78625000  0.38383000  1.0
  Ag  Ag2  1  0.50019000  0.48745000  0.37809000  1.0
  Ag  Ag3  1  0.28626000  0.01987000  0.06261000  1.0
  Ag  Ag4  1  0.21375000  0.74189000  0.05050000  1.0
  Ag  Ag5  1  0.51255000  0.01274000  0.04476000  1.0
  Ag  Ag6  1  0.98013000  0.26639000  0.72927000  1.0
  Ag  Ag7  1  0.25811000  0.47186000  0.71716000  1.0
  Ag  Ag8  1  0.98726000  0.49981000  0.71142000  1.0
  Ag  Ag9  1  0.71374000  0.73361000  0.60406000  1.0
  Ag  Ag10  1  0.78625000  0.52814000  0.61617000  1.0
  Ag  Ag11  1  0.48745000  0.50019000  0.62191000  1.0
  Ag  Ag12  1  0.01987000  0.28626000  0.93739000  1.0
  Ag  Ag13  1  0.74189000  0.21375000  0.94950000  1.0
  Ag  Ag14  1  0.01274000  0.51255000  0.95524000  1.0
  Ag  Ag15  1  0.26639000  0.98013000  0.27073000  1.0
  Ag  Ag16  1  0.47186000  0.25811000  0.28284000  1.0
  Ag  Ag17  1  0.49981000  0.98726000  0.28858000  1.0
  Ag  Ag18  1  0.72069000  0.72069000  0.50000000  1.0
  Ag  Ag19  1  0.27931000  0.00000000  0.16667000  1.0
  Ag  Ag20  1  0.00000000  0.27931000  0.83333000  1.0
  H  H21  1  0.52130000  0.83210000  0.52240000  1.0
  H  H22  1  0.39690000  0.82100000  0.58700000  1.0
  H  H23  1  0.15170000  0.43480000  0.56290000  1.0
  H  H24  1  0.27610000  0.44590000  0.49820000  1.0
  H  H25  1  0.16790000  0.68920000  0.18907000  1.0
  H  H26  1  0.17900000  0.57590000  0.25367000  1.0
  H  H27  1  0.56520000  0.71690000  0.22957000  1.0
  H  H28  1  0.55410000  0.83020000  0.16487000  1.0
  H  H29  1  0.31080000  0.47870000  0.85573000  1.0
  H  H30  1  0.42410000  0.60310000  0.92033000  1.0
  H  H31  1  0.28310000  0.84830000  0.89623000  1.0
  H  H32  1  0.16980000  0.72390000  0.83153000  1.0
  H  H33  1  0.83210000  0.52130000  0.47760000  1.0
  H  H34  1  0.82100000  0.39690000  0.41300000  1.0
  H  H35  1  0.43480000  0.15170000  0.43710000  1.0
  H  H36  1  0.44590000  0.27610000  0.50180000  1.0
  H  H37  1  0.68920000  0.16790000  0.81093000  1.0
  H  H38  1  0.57590000  0.17900000  0.74633000  1.0
  H  H39  1  0.71690000  0.56520000  0.77043000  1.0
  H  H40  1  0.83020000  0.55410000  0.83513000  1.0
  H  H41  1  0.47870000  0.31080000  0.14427000  1.0
  H  H42  1  0.60310000  0.42410000  0.07967000  1.0
  H  H43  1  0.84830000  0.28310000  0.10377000  1.0
  H  H44  1  0.72390000  0.16980000  0.16847000  1.0
  C  C45  1  0.54880000  0.63890000  0.43190000  1.0
  C  C46  1  0.48910000  0.64490000  0.46510000  1.0
  C  C47  1  0.41100000  0.64010000  0.50393000  1.0
  C  C48  1  0.44720000  0.75240000  0.53050000  1.0
  C  C49  1  0.37260000  0.74580000  0.56920000  1.0
  C  C50  1  0.26190000  0.62680000  0.58135000  1.0
  C  C51  1  0.22570000  0.51440000  0.55470000  1.0
  C  C52  1  0.30030000  0.52110000  0.51600000  1.0
  C  C53  1  0.78220000  0.24670000  0.64770000  1.0
  C  C54  1  0.69570000  0.17400000  0.60330000  1.0
  C  C55  1  0.77570000  0.20280000  0.55540000  1.0
  C  C56  1  0.87820000  0.15450000  0.54770000  1.0
  C  C57  1  0.82230000  0.00120000  0.54690000  1.0
  C  C58  1  0.36110000  0.90990000  0.09857000  1.0
  C  C59  1  0.35510000  0.84420000  0.13177000  1.0
  C  C60  1  0.35990000  0.77090000  0.17060000  1.0
  C  C61  1  0.24760000  0.69480000  0.19717000  1.0
  C  C62  1  0.25420000  0.62680000  0.23587000  1.0
  C  C63  1  0.37320000  0.63510000  0.24802000  1.0
  C  C64  1  0.48560000  0.71130000  0.22137000  1.0
  C  C65  1  0.47890000  0.77920000  0.18267000  1.0
  C  C66  1  0.75330000  0.53550000  0.31437000  1.0
  C  C67  1  0.82600000  0.52170000  0.26997000  1.0
  C  C68  1  0.79720000  0.57290000  0.22207000  1.0
  C  C69  1  0.84550000  0.72370000  0.21437000  1.0
  C  C70  1  0.99880000  0.82110000  0.21357000  1.0
  C  C71  1  0.09010000  0.45120000  0.76523000  1.0
  C  C72  1  0.15580000  0.51090000  0.79843000  1.0
  C  C73  1  0.22910000  0.58900000  0.83726000  1.0
  C  C74  1  0.30520000  0.55280000  0.86383000  1.0
  C  C75  1  0.37320000  0.62740000  0.90253000  1.0
  C  C76  1  0.36490000  0.73810000  0.91468000  1.0
  C  C77  1  0.28870000  0.77430000  0.88803000  1.0
  C  C78  1  0.22080000  0.69970000  0.84933000  1.0
  C  C79  1  0.46450000  0.21780000  0.98103000  1.0
  C  C80  1  0.47830000  0.30430000  0.93663000  1.0
  C  C81  1  0.42710000  0.22430000  0.88873000  1.0
  C  C82  1  0.27630000  0.12180000  0.88103000  1.0
  C  C83  1  0.17890000  0.17770000  0.88023000  1.0
  C  C84  1  0.63890000  0.54880000  0.56810000  1.0
  C  C85  1  0.64490000  0.48910000  0.53490000  1.0
  C  C86  1  0.64010000  0.41100000  0.49607000  1.0
  C  C87  1  0.75240000  0.44720000  0.46950000  1.0
  C  C88  1  0.74580000  0.37260000  0.43080000  1.0
  C  C89  1  0.62680000  0.26190000  0.41865000  1.0
  C  C90  1  0.51440000  0.22570000  0.44530000  1.0
  C  C91  1  0.52110000  0.30030000  0.48400000  1.0
  C  C92  1  0.24670000  0.78220000  0.35230000  1.0
  C  C93  1  0.17400000  0.69570000  0.39670000  1.0
  C  C94  1  0.20280000  0.77570000  0.44460000  1.0
  C  C95  1  0.15450000  0.87820000  0.45230000  1.0
  C  C96  1  0.00120000  0.82230000  0.45310000  1.0
  C  C97  1  0.90990000  0.36110000  0.90143000  1.0
  C  C98  1  0.84420000  0.35510000  0.86823000  1.0
  C  C99  1  0.77090000  0.35990000  0.82940000  1.0
  C  C100  1  0.69480000  0.24760000  0.80283000  1.0
  C  C101  1  0.62680000  0.25420000  0.76413000  1.0
  C  C102  1  0.63510000  0.37320000  0.75198000  1.0
  C  C103  1  0.71130000  0.48560000  0.77863000  1.0
  C  C104  1  0.77920000  0.47890000  0.81733000  1.0
  C  C105  1  0.53550000  0.75330000  0.68563000  1.0
  C  C106  1  0.52170000  0.82600000  0.73003000  1.0
  C  C107  1  0.57290000  0.79720000  0.77793000  1.0
  C  C108  1  0.72370000  0.84550000  0.78563000  1.0
  C  C109  1  0.82110000  0.99880000  0.78643000  1.0
  C  C110  1  0.45120000  0.09010000  0.23477000  1.0
  C  C111  1  0.51090000  0.15580000  0.20157000  1.0
  C  C112  1  0.58900000  0.22910000  0.16274000  1.0
  C  C113  1  0.55280000  0.30520000  0.13617000  1.0
  C  C114  1  0.62740000  0.37320000  0.09747000  1.0
  C  C115  1  0.73810000  0.36490000  0.08532000  1.0
  C  C116  1  0.77430000  0.28870000  0.11197000  1.0
  C  C117  1  0.69970000  0.22080000  0.15067000  1.0
  C  C118  1  0.21780000  0.46450000  0.01897000  1.0
  C  C119  1  0.30430000  0.47830000  0.06337000  1.0
  C  C120  1  0.22430000  0.42710000  0.11127000  1.0
  C  C121  1  0.12180000  0.27630000  0.11897000  1.0
  C  C122  1  0.17770000  0.17890000  0.11977000  1.0
  N  N123  1  0.18380000  0.61660000  0.62250000  1.0
  N  N124  1  0.38340000  0.56720000  0.28917000  1.0
  N  N125  1  0.43280000  0.81620000  0.95583000  1.0
  N  N126  1  0.61660000  0.18380000  0.37750000  1.0
  N  N127  1  0.56720000  0.38340000  0.71083000  1.0
  N  N128  1  0.81620000  0.43280000  0.04417000  1.0
  O  O129  1  0.21380000  0.70930000  0.64510000  1.0
  O  O130  1  0.09110000  0.50690000  0.63160000  1.0
  O  O131  1  0.82050000  0.18330000  0.66972000  1.0
  O  O132  1  0.80770000  0.36160000  0.65460000  1.0
  O  O133  1  0.83140000  0.95240000  0.58353000  1.0
  O  O134  1  0.76710000  0.94130000  0.51050000  1.0
  O  O135  1  0.29070000  0.50450000  0.31177000  1.0
  O  O136  1  0.49310000  0.58420000  0.29827000  1.0
  O  O137  1  0.81670000  0.63720000  0.33639000  1.0
  O  O138  1  0.63840000  0.44610000  0.32127000  1.0
  O  O139  1  0.04760000  0.87900000  0.25020000  1.0
  O  O140  1  0.05870000  0.82580000  0.17717000  1.0
  O  O141  1  0.49550000  0.78620000  0.97843000  1.0
  O  O142  1  0.41580000  0.90890000  0.96493000  1.0
  O  O143  1  0.36280000  0.17950000  0.00305000  1.0
  O  O144  1  0.55390000  0.19230000  0.98793000  1.0
  O  O145  1  0.12100000  0.16860000  0.91686000  1.0
  O  O146  1  0.17420000  0.23290000  0.84383000  1.0
  O  O147  1  0.70930000  0.21380000  0.35490000  1.0
  O  O148  1  0.50690000  0.09110000  0.36840000  1.0
  O  O149  1  0.18330000  0.82050000  0.33028000  1.0
  O  O150  1  0.36160000  0.80770000  0.34540000  1.0
  O  O151  1  0.95240000  0.83140000  0.41647000  1.0
  O  O152  1  0.94130000  0.76710000  0.48950000  1.0
  O  O153  1  0.50450000  0.29070000  0.68823000  1.0
  O  O154  1  0.58420000  0.49310000  0.70173000  1.0
  O  O155  1  0.63720000  0.81670000  0.66361000  1.0
  O  O156  1  0.44610000  0.63840000  0.67873000  1.0
  O  O157  1  0.87900000  0.04760000  0.74980000  1.0
  O  O158  1  0.82580000  0.05870000  0.82283000  1.0
  O  O159  1  0.78620000  0.49550000  0.02157000  1.0
  O  O160  1  0.90890000  0.41580000  0.03507000  1.0
  O  O161  1  0.17950000  0.36280000  0.99695000  1.0
  O  O162  1  0.19230000  0.55390000  0.01207000  1.0
  O  O163  1  0.16860000  0.12100000  0.08314000  1.0
  O  O164  1  0.23290000  0.17420000  0.15617000  1.0
  F  F165  1  0.63740000  0.04850000  0.60740000  1.0
  F  F166  1  0.61290000  0.21680000  0.59570000  1.0
  F  F167  1  0.84350000  0.33640000  0.54880000  1.0
  F  F168  1  0.68350000  0.14760000  0.52060000  1.0
  F  F169  1  0.93550000  0.19880000  0.50660000  1.0
  F  F170  1  0.96690000  0.21100000  0.58050000  1.0
  F  F171  1  0.95150000  0.58890000  0.27407000  1.0
  F  F172  1  0.78320000  0.39610000  0.26237000  1.0
  F  F173  1  0.66360000  0.50710000  0.21547000  1.0
  F  F174  1  0.85240000  0.53590000  0.18727000  1.0
  F  F175  1  0.80120000  0.73670000  0.17327000  1.0
  F  F176  1  0.78900000  0.75590000  0.24717000  1.0
  F  F177  1  0.41110000  0.36260000  0.94073000  1.0
  F  F178  1  0.60390000  0.38710000  0.92903000  1.0
  F  F179  1  0.49290000  0.15650000  0.88213000  1.0
  F  F180  1  0.46410000  0.31650000  0.85393000  1.0
  F  F181  1  0.26330000  0.06450000  0.83993000  1.0
  F  F182  1  0.24410000  0.03310000  0.91383000  1.0
  F  F183  1  0.04850000  0.63740000  0.39260000  1.0
  F  F184  1  0.21680000  0.61290000  0.40430000  1.0
  F  F185  1  0.33640000  0.84350000  0.45120000  1.0
  F  F186  1  0.14760000  0.68350000  0.47940000  1.0
  F  F187  1  0.19880000  0.93550000  0.49340000  1.0
  F  F188  1  0.21100000  0.96690000  0.41950000  1.0
  F  F189  1  0.58890000  0.95150000  0.72593000  1.0
  F  F190  1  0.39610000  0.78320000  0.73763000  1.0
  F  F191  1  0.50710000  0.66360000  0.78453000  1.0
  F  F192  1  0.53590000  0.85240000  0.81273000  1.0
  F  F193  1  0.73670000  0.80120000  0.82673000  1.0
  F  F194  1  0.75590000  0.78900000  0.75283000  1.0
  F  F195  1  0.36260000  0.41110000  0.05927000  1.0
  F  F196  1  0.38710000  0.60390000  0.07097000  1.0
  F  F197  1  0.15650000  0.49290000  0.11787000  1.0
  F  F198  1  0.31650000  0.46410000  0.14607000  1.0
  F  F199  1  0.06450000  0.26330000  0.16007000  1.0
  F  F200  1  0.03310000  0.24410000  0.08617000  1.0
