# generated using pymatgen
data_AgH12(C3N)6
_symmetry_space_group_name_H-M   'P 1'
_cell_length_a   22.05010000
_cell_length_b   16.50790000
_cell_length_c   25.59600000
_cell_angle_alpha   90.00000000
_cell_angle_beta   115.29100000
_cell_angle_gamma   90.00000000
_symmetry_Int_Tables_number   1
_chemical_formula_structural   AgH12(C3N)6
_chemical_formula_sum   'Ag16 H192 C288 N96'
_cell_volume   8423.93139559
_cell_formula_units_Z   16
loop_
 _symmetry_equiv_pos_site_id
 _symmetry_equiv_pos_as_xyz
  1  'x, y, z'
loop_
 _atom_site_type_symbol
 _atom_site_label
 _atom_site_symmetry_multiplicity
 _atom_site_fract_x
 _atom_site_fract_y
 _atom_site_fract_z
 _atom_site_occupancy
  Ag  Ag0  1  0.34423000  0.54263000  0.36755000  1.0
  Ag  Ag1  1  0.32266000  0.24611000  0.86700000  1.0
  Ag  Ag2  1  0.84423000  0.04263000  0.36755000  1.0
  Ag  Ag3  1  0.82266000  0.74611000  0.86700000  1.0
  Ag  Ag4  1  0.65577000  0.54263000  0.13245000  1.0
  Ag  Ag5  1  0.67734000  0.24611000  0.63300000  1.0
  Ag  Ag6  1  0.15577000  0.04263000  0.13245000  1.0
  Ag  Ag7  1  0.17734000  0.74611000  0.63300000  1.0
  Ag  Ag8  1  0.65577000  0.45737000  0.63245000  1.0
  Ag  Ag9  1  0.67734000  0.75389000  0.13300000  1.0
  Ag  Ag10  1  0.15577000  0.95737000  0.63245000  1.0
  Ag  Ag11  1  0.17734000  0.25389000  0.13300000  1.0
  Ag  Ag12  1  0.34423000  0.45737000  0.86755000  1.0
  Ag  Ag13  1  0.32266000  0.75389000  0.36700000  1.0
  Ag  Ag14  1  0.84423000  0.95737000  0.86755000  1.0
  Ag  Ag15  1  0.82266000  0.25389000  0.36700000  1.0
  H  H16  1  0.70060000  0.84310000  0.85160000  1.0
  H  H17  1  0.05430000  0.20950000  0.38880000  1.0
  H  H18  1  0.79860000  0.86500000  0.04910000  1.0
  H  H19  1  0.42390000  0.18350000  0.98420000  1.0
  H  H20  1  0.21340000  0.44250000  0.34830000  1.0
  H  H21  1  0.32000000  0.41180000  0.54460000  1.0
  H  H22  1  0.52320000  0.11670000  0.03600000  1.0
  H  H23  1  0.04310000  0.16940000  0.53900000  1.0
  H  H24  1  0.63520000  0.06190000  0.16050000  1.0
  H  H25  1  0.16200000  0.36770000  0.39300000  1.0
  H  H26  1  0.94470000  0.10280000  0.48900000  1.0
  H  H27  1  0.84920000  0.79550000  0.99970000  1.0
  H  H28  1  0.36740000  0.48260000  0.49380000  1.0
  H  H29  1  0.95600000  0.13870000  0.34380000  1.0
  H  H30  1  0.51980000  0.04330000  0.88540000  1.0
  H  H31  1  0.85130000  0.97850000  0.26280000  1.0
  H  H32  1  0.64450000  0.91270000  0.89520000  1.0
  H  H33  1  0.68950000  0.07740000  0.25950000  1.0
  H  H34  1  0.42440000  0.11790000  0.83880000  1.0
  H  H35  1  0.22630000  0.17000000  0.75410000  1.0
  H  H36  1  0.32430000  0.33320000  0.66780000  1.0
  H  H37  1  0.36750000  0.31970000  0.76620000  1.0
  H  H38  1  0.80210000  0.95950000  0.16470000  1.0
  H  H39  1  0.17670000  0.18160000  0.65540000  1.0
  H  H40  1  0.20060000  0.34310000  0.85160000  1.0
  H  H41  1  0.55430000  0.70950000  0.38880000  1.0
  H  H42  1  0.29860000  0.36500000  0.04910000  1.0
  H  H43  1  0.92390000  0.68350000  0.98420000  1.0
  H  H44  1  0.71340000  0.94250000  0.34830000  1.0
  H  H45  1  0.82000000  0.91180000  0.54460000  1.0
  H  H46  1  0.02320000  0.61670000  0.03600000  1.0
  H  H47  1  0.54310000  0.66940000  0.53900000  1.0
  H  H48  1  0.13520000  0.56190000  0.16050000  1.0
  H  H49  1  0.66200000  0.86770000  0.39300000  1.0
  H  H50  1  0.44470000  0.60280000  0.48900000  1.0
  H  H51  1  0.34920000  0.29550000  0.99970000  1.0
  H  H52  1  0.86740000  0.98260000  0.49380000  1.0
  H  H53  1  0.45600000  0.63870000  0.34380000  1.0
  H  H54  1  0.01980000  0.54330000  0.88540000  1.0
  H  H55  1  0.35130000  0.47850000  0.26280000  1.0
  H  H56  1  0.14450000  0.41270000  0.89520000  1.0
  H  H57  1  0.18950000  0.57740000  0.25950000  1.0
  H  H58  1  0.92440000  0.61790000  0.83880000  1.0
  H  H59  1  0.72630000  0.67000000  0.75410000  1.0
  H  H60  1  0.82430000  0.83320000  0.66780000  1.0
  H  H61  1  0.86750000  0.81970000  0.76620000  1.0
  H  H62  1  0.30210000  0.45950000  0.16470000  1.0
  H  H63  1  0.67670000  0.68160000  0.65540000  1.0
  H  H64  1  0.29940000  0.84310000  0.64840000  1.0
  H  H65  1  0.94570000  0.20950000  0.11120000  1.0
  H  H66  1  0.20140000  0.86500000  0.45090000  1.0
  H  H67  1  0.57610000  0.18350000  0.51580000  1.0
  H  H68  1  0.78660000  0.44250000  0.15170000  1.0
  H  H69  1  0.68000000  0.41180000  0.95540000  1.0
  H  H70  1  0.47680000  0.11670000  0.46400000  1.0
  H  H71  1  0.95690000  0.16940000  0.96100000  1.0
  H  H72  1  0.36480000  0.06190000  0.33950000  1.0
  H  H73  1  0.83800000  0.36770000  0.10700000  1.0
  H  H74  1  0.05530000  0.10280000  0.01100000  1.0
  H  H75  1  0.15080000  0.79550000  0.50030000  1.0
  H  H76  1  0.63260000  0.48260000  0.00620000  1.0
  H  H77  1  0.04400000  0.13870000  0.15620000  1.0
  H  H78  1  0.48020000  0.04330000  0.61460000  1.0
  H  H79  1  0.14870000  0.97850000  0.23720000  1.0
  H  H80  1  0.35550000  0.91270000  0.60480000  1.0
  H  H81  1  0.31050000  0.07740000  0.24050000  1.0
  H  H82  1  0.57560000  0.11790000  0.66120000  1.0
  H  H83  1  0.77370000  0.17000000  0.74590000  1.0
  H  H84  1  0.67570000  0.33320000  0.83220000  1.0
  H  H85  1  0.63250000  0.31970000  0.73380000  1.0
  H  H86  1  0.19790000  0.95950000  0.33530000  1.0
  H  H87  1  0.82330000  0.18160000  0.84460000  1.0
  H  H88  1  0.79940000  0.34310000  0.64840000  1.0
  H  H89  1  0.44570000  0.70950000  0.11120000  1.0
  H  H90  1  0.70140000  0.36500000  0.45090000  1.0
  H  H91  1  0.07610000  0.68350000  0.51580000  1.0
  H  H92  1  0.28660000  0.94250000  0.15170000  1.0
  H  H93  1  0.18000000  0.91180000  0.95540000  1.0
  H  H94  1  0.97680000  0.61670000  0.46400000  1.0
  H  H95  1  0.45690000  0.66940000  0.96100000  1.0
  H  H96  1  0.86480000  0.56190000  0.33950000  1.0
  H  H97  1  0.33800000  0.86770000  0.10700000  1.0
  H  H98  1  0.55530000  0.60280000  0.01100000  1.0
  H  H99  1  0.65080000  0.29550000  0.50030000  1.0
  H  H100  1  0.13260000  0.98260000  0.00620000  1.0
  H  H101  1  0.54400000  0.63870000  0.15620000  1.0
  H  H102  1  0.98020000  0.54330000  0.61460000  1.0
  H  H103  1  0.64870000  0.47850000  0.23720000  1.0
  H  H104  1  0.85550000  0.41270000  0.60480000  1.0
  H  H105  1  0.81050000  0.57740000  0.24050000  1.0
  H  H106  1  0.07560000  0.61790000  0.66120000  1.0
  H  H107  1  0.27370000  0.67000000  0.74590000  1.0
  H  H108  1  0.17570000  0.83320000  0.83220000  1.0
  H  H109  1  0.13250000  0.81970000  0.73380000  1.0
  H  H110  1  0.69790000  0.45950000  0.33530000  1.0
  H  H111  1  0.32330000  0.68160000  0.84460000  1.0
  H  H112  1  0.29940000  0.15690000  0.14840000  1.0
  H  H113  1  0.94570000  0.79050000  0.61120000  1.0
  H  H114  1  0.20140000  0.13500000  0.95090000  1.0
  H  H115  1  0.57610000  0.81650000  0.01580000  1.0
  H  H116  1  0.78660000  0.55750000  0.65170000  1.0
  H  H117  1  0.68000000  0.58820000  0.45540000  1.0
  H  H118  1  0.47680000  0.88330000  0.96400000  1.0
  H  H119  1  0.95690000  0.83060000  0.46100000  1.0
  H  H120  1  0.36480000  0.93810000  0.83950000  1.0
  H  H121  1  0.83800000  0.63230000  0.60700000  1.0
  H  H122  1  0.05530000  0.89720000  0.51100000  1.0
  H  H123  1  0.15080000  0.20450000  0.00030000  1.0
  H  H124  1  0.63260000  0.51740000  0.50620000  1.0
  H  H125  1  0.04400000  0.86130000  0.65620000  1.0
  H  H126  1  0.48020000  0.95670000  0.11460000  1.0
  H  H127  1  0.14870000  0.02150000  0.73720000  1.0
  H  H128  1  0.35550000  0.08730000  0.10480000  1.0
  H  H129  1  0.31050000  0.92260000  0.74050000  1.0
  H  H130  1  0.57560000  0.88210000  0.16120000  1.0
  H  H131  1  0.77370000  0.83000000  0.24590000  1.0
  H  H132  1  0.67570000  0.66680000  0.33220000  1.0
  H  H133  1  0.63250000  0.68030000  0.23380000  1.0
  H  H134  1  0.19790000  0.04050000  0.83530000  1.0
  H  H135  1  0.82330000  0.81840000  0.34460000  1.0
  H  H136  1  0.79940000  0.65690000  0.14840000  1.0
  H  H137  1  0.44570000  0.29050000  0.61120000  1.0
  H  H138  1  0.70140000  0.63500000  0.95090000  1.0
  H  H139  1  0.07610000  0.31650000  0.01580000  1.0
  H  H140  1  0.28660000  0.05750000  0.65170000  1.0
  H  H141  1  0.18000000  0.08820000  0.45540000  1.0
  H  H142  1  0.97680000  0.38330000  0.96400000  1.0
  H  H143  1  0.45690000  0.33060000  0.46100000  1.0
  H  H144  1  0.86480000  0.43810000  0.83950000  1.0
  H  H145  1  0.33800000  0.13230000  0.60700000  1.0
  H  H146  1  0.55530000  0.39720000  0.51100000  1.0
  H  H147  1  0.65080000  0.70450000  0.00030000  1.0
  H  H148  1  0.13260000  0.01740000  0.50620000  1.0
  H  H149  1  0.54400000  0.36130000  0.65620000  1.0
  H  H150  1  0.98020000  0.45670000  0.11460000  1.0
  H  H151  1  0.64870000  0.52150000  0.73720000  1.0
  H  H152  1  0.85550000  0.58730000  0.10480000  1.0
  H  H153  1  0.81050000  0.42260000  0.74050000  1.0
  H  H154  1  0.07560000  0.38210000  0.16120000  1.0
  H  H155  1  0.27370000  0.33000000  0.24590000  1.0
  H  H156  1  0.17570000  0.16680000  0.33220000  1.0
  H  H157  1  0.13250000  0.18030000  0.23380000  1.0
  H  H158  1  0.69790000  0.54050000  0.83530000  1.0
  H  H159  1  0.32330000  0.31840000  0.34460000  1.0
  H  H160  1  0.70060000  0.15690000  0.35160000  1.0
  H  H161  1  0.05430000  0.79050000  0.88880000  1.0
  H  H162  1  0.79860000  0.13500000  0.54910000  1.0
  H  H163  1  0.42390000  0.81650000  0.48420000  1.0
  H  H164  1  0.21340000  0.55750000  0.84830000  1.0
  H  H165  1  0.32000000  0.58820000  0.04460000  1.0
  H  H166  1  0.52320000  0.88330000  0.53600000  1.0
  H  H167  1  0.04310000  0.83060000  0.03900000  1.0
  H  H168  1  0.63520000  0.93810000  0.66050000  1.0
  H  H169  1  0.16200000  0.63230000  0.89300000  1.0
  H  H170  1  0.94470000  0.89720000  0.98900000  1.0
  H  H171  1  0.84920000  0.20450000  0.49970000  1.0
  H  H172  1  0.36740000  0.51740000  0.99380000  1.0
  H  H173  1  0.95600000  0.86130000  0.84380000  1.0
  H  H174  1  0.51980000  0.95670000  0.38540000  1.0
  H  H175  1  0.85130000  0.02150000  0.76280000  1.0
  H  H176  1  0.64450000  0.08730000  0.39520000  1.0
  H  H177  1  0.68950000  0.92260000  0.75950000  1.0
  H  H178  1  0.42440000  0.88210000  0.33880000  1.0
  H  H179  1  0.22630000  0.83000000  0.25410000  1.0
  H  H180  1  0.32430000  0.66680000  0.16780000  1.0
  H  H181  1  0.36750000  0.68030000  0.26620000  1.0
  H  H182  1  0.80210000  0.04050000  0.66470000  1.0
  H  H183  1  0.17670000  0.81840000  0.15540000  1.0
  H  H184  1  0.20060000  0.65690000  0.35160000  1.0
  H  H185  1  0.55430000  0.29050000  0.88880000  1.0
  H  H186  1  0.29860000  0.63500000  0.54910000  1.0
  H  H187  1  0.92390000  0.31650000  0.48420000  1.0
  H  H188  1  0.71340000  0.05750000  0.84830000  1.0
  H  H189  1  0.82000000  0.08820000  0.04460000  1.0
  H  H190  1  0.02320000  0.38330000  0.53600000  1.0
  H  H191  1  0.54310000  0.33060000  0.03900000  1.0
  H  H192  1  0.13520000  0.43810000  0.66050000  1.0
  H  H193  1  0.66200000  0.13230000  0.89300000  1.0
  H  H194  1  0.44470000  0.39720000  0.98900000  1.0
  H  H195  1  0.34920000  0.70450000  0.49970000  1.0
  H  H196  1  0.86740000  0.01740000  0.99380000  1.0
  H  H197  1  0.45600000  0.36130000  0.84380000  1.0
  H  H198  1  0.01980000  0.45670000  0.38540000  1.0
  H  H199  1  0.35130000  0.52150000  0.76280000  1.0
  H  H200  1  0.14450000  0.58730000  0.39520000  1.0
  H  H201  1  0.18950000  0.42260000  0.75950000  1.0
  H  H202  1  0.92440000  0.38210000  0.33880000  1.0
  H  H203  1  0.72630000  0.33000000  0.25410000  1.0
  H  H204  1  0.82430000  0.16680000  0.16780000  1.0
  H  H205  1  0.86750000  0.18030000  0.26620000  1.0
  H  H206  1  0.30210000  0.54050000  0.66470000  1.0
  H  H207  1  0.67670000  0.31840000  0.15540000  1.0
  C  C208  1  0.12380000  0.24350000  0.50140000  1.0
  C  C209  1  0.59800000  0.02930000  0.00020000  1.0
  C  C210  1  0.72030000  0.84770000  0.89170000  1.0
  C  C211  1  0.03280000  0.18850000  0.41020000  1.0
  C  C212  1  0.05970000  0.19870000  0.46920000  1.0
  C  C213  1  0.77780000  0.86160000  0.00900000  1.0
  C  C214  1  0.44400000  0.15580000  0.96410000  1.0
  C  C215  1  0.23520000  0.43550000  0.38820000  1.0
  C  C216  1  0.29780000  0.41600000  0.50460000  1.0
  C  C217  1  0.24300000  0.26320000  0.65060000  1.0
  C  C218  1  0.68240000  0.94780000  0.00610000  1.0
  C  C219  1  0.50360000  0.11550000  0.99580000  1.0
  C  C220  1  0.20970000  0.27390000  0.58700000  1.0
  C  C221  1  0.02580000  0.16490000  0.49900000  1.0
  C  C222  1  0.53350000  0.07340000  0.96610000  1.0
  C  C223  1  0.23570000  0.37870000  0.47400000  1.0
  C  C224  1  0.20540000  0.32800000  0.50440000  1.0
  C  C225  1  0.67920000  0.04410000  0.18060000  1.0
  C  C226  1  0.20400000  0.39030000  0.41460000  1.0
  C  C227  1  0.96690000  0.12500000  0.46860000  1.0
  C  C228  1  0.71530000  0.89810000  0.97690000  1.0
  C  C229  1  0.68020000  0.99790000  0.08740000  1.0
  C  C230  1  0.71250000  0.00830000  0.15130000  1.0
  C  C231  1  0.80780000  0.81990000  0.97880000  1.0
  C  C232  1  0.32530000  0.45940000  0.47340000  1.0
  C  C233  1  0.97330000  0.14640000  0.38360000  1.0
  C  C234  1  0.50200000  0.07270000  0.90650000  1.0
  C  C235  1  0.80710000  0.99510000  0.24190000  1.0
  C  C236  1  0.68630000  0.89010000  0.91750000  1.0
  C  C237  1  0.71220000  0.05330000  0.24020000  1.0
  C  C238  1  0.44390000  0.11640000  0.87890000  1.0
  C  C239  1  0.24530000  0.20470000  0.73660000  1.0
  C  C240  1  0.30230000  0.30150000  0.68440000  1.0
  C  C241  1  0.32830000  0.29200000  0.74360000  1.0
  C  C242  1  0.77810000  0.98350000  0.18290000  1.0
  C  C243  1  0.21510000  0.21130000  0.67730000  1.0
  C  C244  1  0.62380000  0.74350000  0.50140000  1.0
  C  C245  1  0.09800000  0.52930000  0.00020000  1.0
  C  C246  1  0.22030000  0.34770000  0.89170000  1.0
  C  C247  1  0.53280000  0.68850000  0.41020000  1.0
  C  C248  1  0.55970000  0.69870000  0.46920000  1.0
  C  C249  1  0.27780000  0.36160000  0.00900000  1.0
  C  C250  1  0.94400000  0.65580000  0.96410000  1.0
  C  C251  1  0.73520000  0.93550000  0.38820000  1.0
  C  C252  1  0.79780000  0.91600000  0.50460000  1.0
  C  C253  1  0.74300000  0.76320000  0.65060000  1.0
  C  C254  1  0.18240000  0.44780000  0.00610000  1.0
  C  C255  1  0.00360000  0.61550000  0.99580000  1.0
  C  C256  1  0.70970000  0.77390000  0.58700000  1.0
  C  C257  1  0.52580000  0.66490000  0.49900000  1.0
  C  C258  1  0.03350000  0.57340000  0.96610000  1.0
  C  C259  1  0.73570000  0.87870000  0.47400000  1.0
  C  C260  1  0.70540000  0.82800000  0.50440000  1.0
  C  C261  1  0.17920000  0.54410000  0.18060000  1.0
  C  C262  1  0.70400000  0.89030000  0.41460000  1.0
  C  C263  1  0.46690000  0.62500000  0.46860000  1.0
  C  C264  1  0.21530000  0.39810000  0.97690000  1.0
  C  C265  1  0.18020000  0.49790000  0.08740000  1.0
  C  C266  1  0.21250000  0.50830000  0.15130000  1.0
  C  C267  1  0.30780000  0.31990000  0.97880000  1.0
  C  C268  1  0.82530000  0.95940000  0.47340000  1.0
  C  C269  1  0.47330000  0.64640000  0.38360000  1.0
  C  C270  1  0.00200000  0.57270000  0.90650000  1.0
  C  C271  1  0.30710000  0.49510000  0.24190000  1.0
  C  C272  1  0.18630000  0.39010000  0.91750000  1.0
  C  C273  1  0.21220000  0.55330000  0.24020000  1.0
  C  C274  1  0.94390000  0.61640000  0.87890000  1.0
  C  C275  1  0.74530000  0.70470000  0.73660000  1.0
  C  C276  1  0.80230000  0.80150000  0.68440000  1.0
  C  C277  1  0.82830000  0.79200000  0.74360000  1.0
  C  C278  1  0.27810000  0.48350000  0.18290000  1.0
  C  C279  1  0.71510000  0.71130000  0.67730000  1.0
  C  C280  1  0.87620000  0.24350000  0.99860000  1.0
  C  C281  1  0.40200000  0.02930000  0.49980000  1.0
  C  C282  1  0.27970000  0.84770000  0.60830000  1.0
  C  C283  1  0.96720000  0.18850000  0.08980000  1.0
  C  C284  1  0.94030000  0.19870000  0.03080000  1.0
  C  C285  1  0.22220000  0.86160000  0.49100000  1.0
  C  C286  1  0.55600000  0.15580000  0.53590000  1.0
  C  C287  1  0.76480000  0.43550000  0.11180000  1.0
  C  C288  1  0.70220000  0.41600000  0.99540000  1.0
  C  C289  1  0.75700000  0.26320000  0.84940000  1.0
  C  C290  1  0.31760000  0.94780000  0.49390000  1.0
  C  C291  1  0.49640000  0.11550000  0.50420000  1.0
  C  C292  1  0.79030000  0.27390000  0.91300000  1.0
  C  C293  1  0.97420000  0.16490000  0.00100000  1.0
  C  C294  1  0.46650000  0.07340000  0.53390000  1.0
  C  C295  1  0.76430000  0.37870000  0.02600000  1.0
  C  C296  1  0.79460000  0.32800000  0.99560000  1.0
  C  C297  1  0.32080000  0.04410000  0.31940000  1.0
  C  C298  1  0.79600000  0.39030000  0.08540000  1.0
  C  C299  1  0.03310000  0.12500000  0.03140000  1.0
  C  C300  1  0.28470000  0.89810000  0.52310000  1.0
  C  C301  1  0.31980000  0.99790000  0.41260000  1.0
  C  C302  1  0.28750000  0.00830000  0.34870000  1.0
  C  C303  1  0.19220000  0.81990000  0.52120000  1.0
  C  C304  1  0.67470000  0.45940000  0.02660000  1.0
  C  C305  1  0.02670000  0.14640000  0.11640000  1.0
  C  C306  1  0.49800000  0.07270000  0.59350000  1.0
  C  C307  1  0.19290000  0.99510000  0.25810000  1.0
  C  C308  1  0.31370000  0.89010000  0.58250000  1.0
  C  C309  1  0.28780000  0.05330000  0.25980000  1.0
  C  C310  1  0.55610000  0.11640000  0.62110000  1.0
  C  C311  1  0.75470000  0.20470000  0.76340000  1.0
  C  C312  1  0.69770000  0.30150000  0.81560000  1.0
  C  C313  1  0.67170000  0.29200000  0.75640000  1.0
  C  C314  1  0.22190000  0.98350000  0.31710000  1.0
  C  C315  1  0.78490000  0.21130000  0.82270000  1.0
  C  C316  1  0.37620000  0.74350000  0.99860000  1.0
  C  C317  1  0.90200000  0.52930000  0.49980000  1.0
  C  C318  1  0.77970000  0.34770000  0.60830000  1.0
  C  C319  1  0.46720000  0.68850000  0.08980000  1.0
  C  C320  1  0.44030000  0.69870000  0.03080000  1.0
  C  C321  1  0.72220000  0.36160000  0.49100000  1.0
  C  C322  1  0.05600000  0.65580000  0.53590000  1.0
  C  C323  1  0.26480000  0.93550000  0.11180000  1.0
  C  C324  1  0.20220000  0.91600000  0.99540000  1.0
  C  C325  1  0.25700000  0.76320000  0.84940000  1.0
  C  C326  1  0.81760000  0.44780000  0.49390000  1.0
  C  C327  1  0.99640000  0.61550000  0.50420000  1.0
  C  C328  1  0.29030000  0.77390000  0.91300000  1.0
  C  C329  1  0.47420000  0.66490000  0.00100000  1.0
  C  C330  1  0.96650000  0.57340000  0.53390000  1.0
  C  C331  1  0.26430000  0.87870000  0.02600000  1.0
  C  C332  1  0.29460000  0.82800000  0.99560000  1.0
  C  C333  1  0.82080000  0.54410000  0.31940000  1.0
  C  C334  1  0.29600000  0.89030000  0.08540000  1.0
  C  C335  1  0.53310000  0.62500000  0.03140000  1.0
  C  C336  1  0.78470000  0.39810000  0.52310000  1.0
  C  C337  1  0.81980000  0.49790000  0.41260000  1.0
  C  C338  1  0.78750000  0.50830000  0.34870000  1.0
  C  C339  1  0.69220000  0.31990000  0.52120000  1.0
  C  C340  1  0.17470000  0.95940000  0.02660000  1.0
  C  C341  1  0.52670000  0.64640000  0.11640000  1.0
  C  C342  1  0.99800000  0.57270000  0.59350000  1.0
  C  C343  1  0.69290000  0.49510000  0.25810000  1.0
  C  C344  1  0.81370000  0.39010000  0.58250000  1.0
  C  C345  1  0.78780000  0.55330000  0.25980000  1.0
  C  C346  1  0.05610000  0.61640000  0.62110000  1.0
  C  C347  1  0.25470000  0.70470000  0.76340000  1.0
  C  C348  1  0.19770000  0.80150000  0.81560000  1.0
  C  C349  1  0.17170000  0.79200000  0.75640000  1.0
  C  C350  1  0.72190000  0.48350000  0.31710000  1.0
  C  C351  1  0.28490000  0.71130000  0.82270000  1.0
  C  C352  1  0.87620000  0.75650000  0.49860000  1.0
  C  C353  1  0.40200000  0.97070000  0.99980000  1.0
  C  C354  1  0.27970000  0.15230000  0.10830000  1.0
  C  C355  1  0.96720000  0.81150000  0.58980000  1.0
  C  C356  1  0.94030000  0.80130000  0.53080000  1.0
  C  C357  1  0.22220000  0.13840000  0.99100000  1.0
  C  C358  1  0.55600000  0.84420000  0.03590000  1.0
  C  C359  1  0.76480000  0.56450000  0.61180000  1.0
  C  C360  1  0.70220000  0.58400000  0.49540000  1.0
  C  C361  1  0.75700000  0.73680000  0.34940000  1.0
  C  C362  1  0.31760000  0.05220000  0.99390000  1.0
  C  C363  1  0.49640000  0.88450000  0.00420000  1.0
  C  C364  1  0.79030000  0.72610000  0.41300000  1.0
  C  C365  1  0.97420000  0.83510000  0.50100000  1.0
  C  C366  1  0.46650000  0.92660000  0.03390000  1.0
  C  C367  1  0.76430000  0.62130000  0.52600000  1.0
  C  C368  1  0.79460000  0.67200000  0.49560000  1.0
  C  C369  1  0.32080000  0.95590000  0.81940000  1.0
  C  C370  1  0.79600000  0.60970000  0.58540000  1.0
  C  C371  1  0.03310000  0.87500000  0.53140000  1.0
  C  C372  1  0.28470000  0.10190000  0.02310000  1.0
  C  C373  1  0.31980000  0.00210000  0.91260000  1.0
  C  C374  1  0.28750000  0.99170000  0.84870000  1.0
  C  C375  1  0.19220000  0.18010000  0.02120000  1.0
  C  C376  1  0.67470000  0.54060000  0.52660000  1.0
  C  C377  1  0.02670000  0.85360000  0.61640000  1.0
  C  C378  1  0.49800000  0.92730000  0.09350000  1.0
  C  C379  1  0.19290000  0.00490000  0.75810000  1.0
  C  C380  1  0.31370000  0.10990000  0.08250000  1.0
  C  C381  1  0.28780000  0.94670000  0.75980000  1.0
  C  C382  1  0.55610000  0.88360000  0.12110000  1.0
  C  C383  1  0.75470000  0.79530000  0.26340000  1.0
  C  C384  1  0.69770000  0.69850000  0.31560000  1.0
  C  C385  1  0.67170000  0.70800000  0.25640000  1.0
  C  C386  1  0.22190000  0.01650000  0.81710000  1.0
  C  C387  1  0.78490000  0.78870000  0.32270000  1.0
  C  C388  1  0.37620000  0.25650000  0.49860000  1.0
  C  C389  1  0.90200000  0.47070000  0.99980000  1.0
  C  C390  1  0.77970000  0.65230000  0.10830000  1.0
  C  C391  1  0.46720000  0.31150000  0.58980000  1.0
  C  C392  1  0.44030000  0.30130000  0.53080000  1.0
  C  C393  1  0.72220000  0.63840000  0.99100000  1.0
  C  C394  1  0.05600000  0.34420000  0.03590000  1.0
  C  C395  1  0.26480000  0.06450000  0.61180000  1.0
  C  C396  1  0.20220000  0.08400000  0.49540000  1.0
  C  C397  1  0.25700000  0.23680000  0.34940000  1.0
  C  C398  1  0.81760000  0.55220000  0.99390000  1.0
  C  C399  1  0.99640000  0.38450000  0.00420000  1.0
  C  C400  1  0.29030000  0.22610000  0.41300000  1.0
  C  C401  1  0.47420000  0.33510000  0.50100000  1.0
  C  C402  1  0.96650000  0.42660000  0.03390000  1.0
  C  C403  1  0.26430000  0.12130000  0.52600000  1.0
  C  C404  1  0.29460000  0.17200000  0.49560000  1.0
  C  C405  1  0.82080000  0.45590000  0.81940000  1.0
  C  C406  1  0.29600000  0.10970000  0.58540000  1.0
  C  C407  1  0.53310000  0.37500000  0.53140000  1.0
  C  C408  1  0.78470000  0.60190000  0.02310000  1.0
  C  C409  1  0.81980000  0.50210000  0.91260000  1.0
  C  C410  1  0.78750000  0.49170000  0.84870000  1.0
  C  C411  1  0.69220000  0.68010000  0.02120000  1.0
  C  C412  1  0.17470000  0.04060000  0.52660000  1.0
  C  C413  1  0.52670000  0.35360000  0.61640000  1.0
  C  C414  1  0.99800000  0.42730000  0.09350000  1.0
  C  C415  1  0.69290000  0.50490000  0.75810000  1.0
  C  C416  1  0.81370000  0.60990000  0.08250000  1.0
  C  C417  1  0.78780000  0.44670000  0.75980000  1.0
  C  C418  1  0.05610000  0.38360000  0.12110000  1.0
  C  C419  1  0.25470000  0.29530000  0.26340000  1.0
  C  C420  1  0.19770000  0.19850000  0.31560000  1.0
  C  C421  1  0.17170000  0.20800000  0.25640000  1.0
  C  C422  1  0.72190000  0.51650000  0.81710000  1.0
  C  C423  1  0.28490000  0.28870000  0.32270000  1.0
  C  C424  1  0.12380000  0.75650000  0.00140000  1.0
  C  C425  1  0.59800000  0.97070000  0.50020000  1.0
  C  C426  1  0.72030000  0.15230000  0.39170000  1.0
  C  C427  1  0.03280000  0.81150000  0.91020000  1.0
  C  C428  1  0.05970000  0.80130000  0.96920000  1.0
  C  C429  1  0.77780000  0.13840000  0.50900000  1.0
  C  C430  1  0.44400000  0.84420000  0.46410000  1.0
  C  C431  1  0.23520000  0.56450000  0.88820000  1.0
  C  C432  1  0.29780000  0.58400000  0.00460000  1.0
  C  C433  1  0.24300000  0.73680000  0.15060000  1.0
  C  C434  1  0.68240000  0.05220000  0.50610000  1.0
  C  C435  1  0.50360000  0.88450000  0.49580000  1.0
  C  C436  1  0.20970000  0.72610000  0.08700000  1.0
  C  C437  1  0.02580000  0.83510000  0.99900000  1.0
  C  C438  1  0.53350000  0.92660000  0.46610000  1.0
  C  C439  1  0.23570000  0.62130000  0.97400000  1.0
  C  C440  1  0.20540000  0.67200000  0.00440000  1.0
  C  C441  1  0.67920000  0.95590000  0.68060000  1.0
  C  C442  1  0.20400000  0.60970000  0.91460000  1.0
  C  C443  1  0.96690000  0.87500000  0.96860000  1.0
  C  C444  1  0.71530000  0.10190000  0.47690000  1.0
  C  C445  1  0.68020000  0.00210000  0.58740000  1.0
  C  C446  1  0.71250000  0.99170000  0.65130000  1.0
  C  C447  1  0.80780000  0.18010000  0.47880000  1.0
  C  C448  1  0.32530000  0.54060000  0.97340000  1.0
  C  C449  1  0.97330000  0.85360000  0.88360000  1.0
  C  C450  1  0.50200000  0.92730000  0.40650000  1.0
  C  C451  1  0.80710000  0.00490000  0.74190000  1.0
  C  C452  1  0.68630000  0.10990000  0.41750000  1.0
  C  C453  1  0.71220000  0.94670000  0.74020000  1.0
  C  C454  1  0.44390000  0.88360000  0.37890000  1.0
  C  C455  1  0.24530000  0.79530000  0.23660000  1.0
  C  C456  1  0.30230000  0.69850000  0.18440000  1.0
  C  C457  1  0.32830000  0.70800000  0.24360000  1.0
  C  C458  1  0.77810000  0.01650000  0.68290000  1.0
  C  C459  1  0.21510000  0.78870000  0.17730000  1.0
  C  C460  1  0.62380000  0.25650000  0.00140000  1.0
  C  C461  1  0.09800000  0.47070000  0.50020000  1.0
  C  C462  1  0.22030000  0.65230000  0.39170000  1.0
  C  C463  1  0.53280000  0.31150000  0.91020000  1.0
  C  C464  1  0.55970000  0.30130000  0.96920000  1.0
  C  C465  1  0.27780000  0.63840000  0.50900000  1.0
  C  C466  1  0.94400000  0.34420000  0.46410000  1.0
  C  C467  1  0.73520000  0.06450000  0.88820000  1.0
  C  C468  1  0.79780000  0.08400000  0.00460000  1.0
  C  C469  1  0.74300000  0.23680000  0.15060000  1.0
  C  C470  1  0.18240000  0.55220000  0.50610000  1.0
  C  C471  1  0.00360000  0.38450000  0.49580000  1.0
  C  C472  1  0.70970000  0.22610000  0.08700000  1.0
  C  C473  1  0.52580000  0.33510000  0.99900000  1.0
  C  C474  1  0.03350000  0.42660000  0.46610000  1.0
  C  C475  1  0.73570000  0.12130000  0.97400000  1.0
  C  C476  1  0.70540000  0.17200000  0.00440000  1.0
  C  C477  1  0.17920000  0.45590000  0.68060000  1.0
  C  C478  1  0.70400000  0.10970000  0.91460000  1.0
  C  C479  1  0.46690000  0.37500000  0.96860000  1.0
  C  C480  1  0.21530000  0.60190000  0.47690000  1.0
  C  C481  1  0.18020000  0.50210000  0.58740000  1.0
  C  C482  1  0.21250000  0.49170000  0.65130000  1.0
  C  C483  1  0.30780000  0.68010000  0.47880000  1.0
  C  C484  1  0.82530000  0.04060000  0.97340000  1.0
  C  C485  1  0.47330000  0.35360000  0.88360000  1.0
  C  C486  1  0.00200000  0.42730000  0.40650000  1.0
  C  C487  1  0.30710000  0.50490000  0.74190000  1.0
  C  C488  1  0.18630000  0.60990000  0.41750000  1.0
  C  C489  1  0.21220000  0.44670000  0.74020000  1.0
  C  C490  1  0.94390000  0.38360000  0.37890000  1.0
  C  C491  1  0.74530000  0.29530000  0.23660000  1.0
  C  C492  1  0.80230000  0.19850000  0.18440000  1.0
  C  C493  1  0.82830000  0.20800000  0.24360000  1.0
  C  C494  1  0.27810000  0.51650000  0.68290000  1.0
  C  C495  1  0.71510000  0.28870000  0.17730000  1.0
  N  N496  1  0.93920000  0.11620000  0.41140000  1.0
  N  N497  1  0.29560000  0.47000000  0.41690000  1.0
  N  N498  1  0.30080000  0.24570000  0.77040000  1.0
  N  N499  1  0.14780000  0.28960000  0.47180000  1.0
  N  N500  1  0.23800000  0.32260000  0.56214000  1.0
  N  N501  1  0.15290000  0.23280000  0.55880000  1.0
  N  N502  1  0.78000000  0.81330000  0.92130000  1.0
  N  N503  1  0.41360000  0.15720000  0.90670000  1.0
  N  N504  1  0.77540000  0.02900000  0.27080000  1.0
  N  N505  1  0.62610000  0.98790000  0.97254000  1.0
  N  N506  1  0.62290000  0.03700000  0.05800000  1.0
  N  N507  1  0.71150000  0.95050000  0.06410000  1.0
  N  N508  1  0.43920000  0.61620000  0.41140000  1.0
  N  N509  1  0.79560000  0.97000000  0.41690000  1.0
  N  N510  1  0.80080000  0.74570000  0.77040000  1.0
  N  N511  1  0.64780000  0.78960000  0.47180000  1.0
  N  N512  1  0.73800000  0.82260000  0.56214000  1.0
  N  N513  1  0.65290000  0.73280000  0.55880000  1.0
  N  N514  1  0.28000000  0.31330000  0.92130000  1.0
  N  N515  1  0.91360000  0.65720000  0.90670000  1.0
  N  N516  1  0.27540000  0.52900000  0.27080000  1.0
  N  N517  1  0.12610000  0.48790000  0.97254000  1.0
  N  N518  1  0.12290000  0.53700000  0.05800000  1.0
  N  N519  1  0.21150000  0.45050000  0.06410000  1.0
  N  N520  1  0.06080000  0.11620000  0.08860000  1.0
  N  N521  1  0.70440000  0.47000000  0.08310000  1.0
  N  N522  1  0.69920000  0.24570000  0.72960000  1.0
  N  N523  1  0.85220000  0.28960000  0.02820000  1.0
  N  N524  1  0.76200000  0.32260000  0.93786000  1.0
  N  N525  1  0.84710000  0.23280000  0.94120000  1.0
  N  N526  1  0.22000000  0.81330000  0.57870000  1.0
  N  N527  1  0.58640000  0.15720000  0.59330000  1.0
  N  N528  1  0.22460000  0.02900000  0.22920000  1.0
  N  N529  1  0.37390000  0.98790000  0.52746000  1.0
  N  N530  1  0.37710000  0.03700000  0.44200000  1.0
  N  N531  1  0.28850000  0.95050000  0.43590000  1.0
  N  N532  1  0.56080000  0.61620000  0.08860000  1.0
  N  N533  1  0.20440000  0.97000000  0.08310000  1.0
  N  N534  1  0.19920000  0.74570000  0.72960000  1.0
  N  N535  1  0.35220000  0.78960000  0.02820000  1.0
  N  N536  1  0.26200000  0.82260000  0.93786000  1.0
  N  N537  1  0.34710000  0.73280000  0.94120000  1.0
  N  N538  1  0.72000000  0.31330000  0.57870000  1.0
  N  N539  1  0.08640000  0.65720000  0.59330000  1.0
  N  N540  1  0.72460000  0.52900000  0.22920000  1.0
  N  N541  1  0.87390000  0.48790000  0.52746000  1.0
  N  N542  1  0.87710000  0.53700000  0.44200000  1.0
  N  N543  1  0.78850000  0.45050000  0.43590000  1.0
  N  N544  1  0.06080000  0.88380000  0.58860000  1.0
  N  N545  1  0.70440000  0.53000000  0.58310000  1.0
  N  N546  1  0.69920000  0.75430000  0.22960000  1.0
  N  N547  1  0.85220000  0.71040000  0.52820000  1.0
  N  N548  1  0.76200000  0.67740000  0.43786000  1.0
  N  N549  1  0.84710000  0.76720000  0.44120000  1.0
  N  N550  1  0.22000000  0.18670000  0.07870000  1.0
  N  N551  1  0.58640000  0.84280000  0.09330000  1.0
  N  N552  1  0.22460000  0.97100000  0.72920000  1.0
  N  N553  1  0.37390000  0.01210000  0.02746000  1.0
  N  N554  1  0.37710000  0.96300000  0.94200000  1.0
  N  N555  1  0.28850000  0.04950000  0.93590000  1.0
  N  N556  1  0.56080000  0.38380000  0.58860000  1.0
  N  N557  1  0.20440000  0.03000000  0.58310000  1.0
  N  N558  1  0.19920000  0.25430000  0.22960000  1.0
  N  N559  1  0.35220000  0.21040000  0.52820000  1.0
  N  N560  1  0.26200000  0.17740000  0.43786000  1.0
  N  N561  1  0.34710000  0.26720000  0.44120000  1.0
  N  N562  1  0.72000000  0.68670000  0.07870000  1.0
  N  N563  1  0.08640000  0.34280000  0.09330000  1.0
  N  N564  1  0.72460000  0.47100000  0.72920000  1.0
  N  N565  1  0.87390000  0.51210000  0.02746000  1.0
  N  N566  1  0.87710000  0.46300000  0.94200000  1.0
  N  N567  1  0.78850000  0.54950000  0.93590000  1.0
  N  N568  1  0.93920000  0.88380000  0.91140000  1.0
  N  N569  1  0.29560000  0.53000000  0.91690000  1.0
  N  N570  1  0.30080000  0.75430000  0.27040000  1.0
  N  N571  1  0.14780000  0.71040000  0.97180000  1.0
  N  N572  1  0.23800000  0.67740000  0.06214000  1.0
  N  N573  1  0.15290000  0.76720000  0.05880000  1.0
  N  N574  1  0.78000000  0.18670000  0.42130000  1.0
  N  N575  1  0.41360000  0.84280000  0.40670000  1.0
  N  N576  1  0.77540000  0.97100000  0.77080000  1.0
  N  N577  1  0.62610000  0.01210000  0.47254000  1.0
  N  N578  1  0.62290000  0.96300000  0.55800000  1.0
  N  N579  1  0.71150000  0.04950000  0.56410000  1.0
  N  N580  1  0.43920000  0.38380000  0.91140000  1.0
  N  N581  1  0.79560000  0.03000000  0.91690000  1.0
  N  N582  1  0.80080000  0.25430000  0.27040000  1.0
  N  N583  1  0.64780000  0.21040000  0.97180000  1.0
  N  N584  1  0.73800000  0.17740000  0.06214000  1.0
  N  N585  1  0.65290000  0.26720000  0.05880000  1.0
  N  N586  1  0.28000000  0.68670000  0.42130000  1.0
  N  N587  1  0.91360000  0.34280000  0.40670000  1.0
  N  N588  1  0.27540000  0.47100000  0.77080000  1.0
  N  N589  1  0.12610000  0.51210000  0.47254000  1.0
  N  N590  1  0.12290000  0.46300000  0.55800000  1.0
  N  N591  1  0.21150000  0.54950000  0.56410000  1.0
