# generated using pymatgen
data_AgH12(C3N)6
_symmetry_space_group_name_H-M   'P 1'
_cell_length_a   21.94750000
_cell_length_b   16.67410000
_cell_length_c   25.52260000
_cell_angle_alpha   90.00000000
_cell_angle_beta   115.11900000
_cell_angle_gamma   90.00000000
_symmetry_Int_Tables_number   1
_chemical_formula_structural   AgH12(C3N)6
_chemical_formula_sum   'Ag16 H192 C288 N96'
_cell_volume   8456.80530763
_cell_formula_units_Z   16
loop_
 _symmetry_equiv_pos_site_id
 _symmetry_equiv_pos_as_xyz
  1  'x, y, z'
loop_
 _atom_site_type_symbol
 _atom_site_label
 _atom_site_symmetry_multiplicity
 _atom_site_fract_x
 _atom_site_fract_y
 _atom_site_fract_z
 _atom_site_occupancy
  Ag  Ag0  1  0.32170000  0.74386000  0.86643000  1.0
  Ag  Ag1  1  0.84425000  0.54332000  0.36689000  1.0
  Ag  Ag2  1  0.82170000  0.24386000  0.86643000  1.0
  Ag  Ag3  1  0.34425000  0.04332000  0.36689000  1.0
  Ag  Ag4  1  0.67830000  0.74386000  0.63357000  1.0
  Ag  Ag5  1  0.15575000  0.54332000  0.13311000  1.0
  Ag  Ag6  1  0.17830000  0.24386000  0.63357000  1.0
  Ag  Ag7  1  0.65575000  0.04332000  0.13311000  1.0
  Ag  Ag8  1  0.67830000  0.25614000  0.13357000  1.0
  Ag  Ag9  1  0.15575000  0.45668000  0.63311000  1.0
  Ag  Ag10  1  0.17830000  0.75614000  0.13357000  1.0
  Ag  Ag11  1  0.65575000  0.95668000  0.63311000  1.0
  Ag  Ag12  1  0.32170000  0.25614000  0.36643000  1.0
  Ag  Ag13  1  0.84425000  0.45668000  0.86689000  1.0
  Ag  Ag14  1  0.82170000  0.75614000  0.36643000  1.0
  Ag  Ag15  1  0.34425000  0.95668000  0.86689000  1.0
  H  H16  1  0.79690000  0.36460000  0.04830000  1.0
  H  H17  1  0.52330000  0.61650000  0.03500000  1.0
  H  H18  1  0.81950000  0.41230000  0.54390000  1.0
  H  H19  1  0.55350000  0.21290000  0.38800000  1.0
  H  H20  1  0.70040000  0.34250000  0.85040000  1.0
  H  H21  1  0.42380000  0.68330000  0.98290000  1.0
  H  H22  1  0.63500000  0.56180000  0.15900000  1.0
  H  H23  1  0.71480000  0.44120000  0.34730000  1.0
  H  H24  1  0.66170000  0.36840000  0.39200000  1.0
  H  H25  1  0.54280000  0.16900000  0.53790000  1.0
  H  H26  1  0.86740000  0.48170000  0.49380000  1.0
  H  H27  1  0.64340000  0.41110000  0.89440000  1.0
  H  H28  1  0.84760000  0.29430000  0.99910000  1.0
  H  H29  1  0.85010000  0.47720000  0.26180000  1.0
  H  H30  1  0.44430000  0.10450000  0.48760000  1.0
  H  H31  1  0.45590000  0.13980000  0.34220000  1.0
  H  H32  1  0.68810000  0.57850000  0.25740000  1.0
  H  H33  1  0.72680000  0.17100000  0.75310000  1.0
  H  H34  1  0.51910000  0.54250000  0.88400000  1.0
  H  H35  1  0.42480000  0.61880000  0.83760000  1.0
  H  H36  1  0.82480000  0.33080000  0.66630000  1.0
  H  H37  1  0.67530000  0.18440000  0.65490000  1.0
  H  H38  1  0.80220000  0.46140000  0.16320000  1.0
  H  H39  1  0.86690000  0.31820000  0.76530000  1.0
  H  H40  1  0.29690000  0.86460000  0.04830000  1.0
  H  H41  1  0.02330000  0.11650000  0.03500000  1.0
  H  H42  1  0.31950000  0.91230000  0.54390000  1.0
  H  H43  1  0.05350000  0.71290000  0.38800000  1.0
  H  H44  1  0.20040000  0.84250000  0.85040000  1.0
  H  H45  1  0.92380000  0.18330000  0.98290000  1.0
  H  H46  1  0.13500000  0.06180000  0.15900000  1.0
  H  H47  1  0.21480000  0.94120000  0.34730000  1.0
  H  H48  1  0.16170000  0.86840000  0.39200000  1.0
  H  H49  1  0.04280000  0.66900000  0.53790000  1.0
  H  H50  1  0.36740000  0.98170000  0.49380000  1.0
  H  H51  1  0.14340000  0.91110000  0.89440000  1.0
  H  H52  1  0.34760000  0.79430000  0.99910000  1.0
  H  H53  1  0.35010000  0.97720000  0.26180000  1.0
  H  H54  1  0.94430000  0.60450000  0.48760000  1.0
  H  H55  1  0.95590000  0.63980000  0.34220000  1.0
  H  H56  1  0.18810000  0.07850000  0.25740000  1.0
  H  H57  1  0.22680000  0.67100000  0.75310000  1.0
  H  H58  1  0.01910000  0.04250000  0.88400000  1.0
  H  H59  1  0.92480000  0.11880000  0.83760000  1.0
  H  H60  1  0.32480000  0.83080000  0.66630000  1.0
  H  H61  1  0.17530000  0.68440000  0.65490000  1.0
  H  H62  1  0.30220000  0.96140000  0.16320000  1.0
  H  H63  1  0.36690000  0.81820000  0.76530000  1.0
  H  H64  1  0.20310000  0.36460000  0.45170000  1.0
  H  H65  1  0.47670000  0.61650000  0.46500000  1.0
  H  H66  1  0.18050000  0.41230000  0.95610000  1.0
  H  H67  1  0.44650000  0.21290000  0.11200000  1.0
  H  H68  1  0.29960000  0.34250000  0.64960000  1.0
  H  H69  1  0.57620000  0.68330000  0.51710000  1.0
  H  H70  1  0.36500000  0.56180000  0.34100000  1.0
  H  H71  1  0.28520000  0.44120000  0.15270000  1.0
  H  H72  1  0.33830000  0.36840000  0.10800000  1.0
  H  H73  1  0.45720000  0.16900000  0.96210000  1.0
  H  H74  1  0.13260000  0.48170000  0.00620000  1.0
  H  H75  1  0.35660000  0.41110000  0.60560000  1.0
  H  H76  1  0.15240000  0.29430000  0.50090000  1.0
  H  H77  1  0.14990000  0.47720000  0.23820000  1.0
  H  H78  1  0.55570000  0.10450000  0.01240000  1.0
  H  H79  1  0.54410000  0.13980000  0.15780000  1.0
  H  H80  1  0.31190000  0.57850000  0.24260000  1.0
  H  H81  1  0.27320000  0.17100000  0.74690000  1.0
  H  H82  1  0.48090000  0.54250000  0.61600000  1.0
  H  H83  1  0.57520000  0.61880000  0.66240000  1.0
  H  H84  1  0.17520000  0.33080000  0.83370000  1.0
  H  H85  1  0.32470000  0.18440000  0.84510000  1.0
  H  H86  1  0.19780000  0.46140000  0.33680000  1.0
  H  H87  1  0.13310000  0.31820000  0.73470000  1.0
  H  H88  1  0.70310000  0.86460000  0.45170000  1.0
  H  H89  1  0.97670000  0.11650000  0.46500000  1.0
  H  H90  1  0.68050000  0.91230000  0.95610000  1.0
  H  H91  1  0.94650000  0.71290000  0.11200000  1.0
  H  H92  1  0.79960000  0.84250000  0.64960000  1.0
  H  H93  1  0.07620000  0.18330000  0.51710000  1.0
  H  H94  1  0.86500000  0.06180000  0.34100000  1.0
  H  H95  1  0.78520000  0.94120000  0.15270000  1.0
  H  H96  1  0.83830000  0.86840000  0.10800000  1.0
  H  H97  1  0.95720000  0.66900000  0.96210000  1.0
  H  H98  1  0.63260000  0.98170000  0.00620000  1.0
  H  H99  1  0.85660000  0.91110000  0.60560000  1.0
  H  H100  1  0.65240000  0.79430000  0.50090000  1.0
  H  H101  1  0.64990000  0.97720000  0.23820000  1.0
  H  H102  1  0.05570000  0.60450000  0.01240000  1.0
  H  H103  1  0.04410000  0.63980000  0.15780000  1.0
  H  H104  1  0.81190000  0.07850000  0.24260000  1.0
  H  H105  1  0.77320000  0.67100000  0.74690000  1.0
  H  H106  1  0.98090000  0.04250000  0.61600000  1.0
  H  H107  1  0.07520000  0.11880000  0.66240000  1.0
  H  H108  1  0.67520000  0.83080000  0.83370000  1.0
  H  H109  1  0.82470000  0.68440000  0.84510000  1.0
  H  H110  1  0.69780000  0.96140000  0.33680000  1.0
  H  H111  1  0.63310000  0.81820000  0.73470000  1.0
  H  H112  1  0.20310000  0.63540000  0.95170000  1.0
  H  H113  1  0.47670000  0.38350000  0.96500000  1.0
  H  H114  1  0.18050000  0.58770000  0.45610000  1.0
  H  H115  1  0.44650000  0.78710000  0.61200000  1.0
  H  H116  1  0.29960000  0.65750000  0.14960000  1.0
  H  H117  1  0.57620000  0.31670000  0.01710000  1.0
  H  H118  1  0.36500000  0.43820000  0.84100000  1.0
  H  H119  1  0.28520000  0.55880000  0.65270000  1.0
  H  H120  1  0.33830000  0.63160000  0.60800000  1.0
  H  H121  1  0.45720000  0.83100000  0.46210000  1.0
  H  H122  1  0.13260000  0.51830000  0.50620000  1.0
  H  H123  1  0.35660000  0.58890000  0.10560000  1.0
  H  H124  1  0.15240000  0.70570000  0.00090000  1.0
  H  H125  1  0.14990000  0.52280000  0.73820000  1.0
  H  H126  1  0.55570000  0.89550000  0.51240000  1.0
  H  H127  1  0.54410000  0.86020000  0.65780000  1.0
  H  H128  1  0.31190000  0.42150000  0.74260000  1.0
  H  H129  1  0.27320000  0.82900000  0.24690000  1.0
  H  H130  1  0.48090000  0.45750000  0.11600000  1.0
  H  H131  1  0.57520000  0.38120000  0.16240000  1.0
  H  H132  1  0.17520000  0.66920000  0.33370000  1.0
  H  H133  1  0.32470000  0.81560000  0.34510000  1.0
  H  H134  1  0.19780000  0.53860000  0.83680000  1.0
  H  H135  1  0.13310000  0.68180000  0.23470000  1.0
  H  H136  1  0.70310000  0.13540000  0.95170000  1.0
  H  H137  1  0.97670000  0.88350000  0.96500000  1.0
  H  H138  1  0.68050000  0.08770000  0.45610000  1.0
  H  H139  1  0.94650000  0.28710000  0.61200000  1.0
  H  H140  1  0.79960000  0.15750000  0.14960000  1.0
  H  H141  1  0.07620000  0.81670000  0.01710000  1.0
  H  H142  1  0.86500000  0.93820000  0.84100000  1.0
  H  H143  1  0.78520000  0.05880000  0.65270000  1.0
  H  H144  1  0.83830000  0.13160000  0.60800000  1.0
  H  H145  1  0.95720000  0.33100000  0.46210000  1.0
  H  H146  1  0.63260000  0.01830000  0.50620000  1.0
  H  H147  1  0.85660000  0.08890000  0.10560000  1.0
  H  H148  1  0.65240000  0.20570000  0.00090000  1.0
  H  H149  1  0.64990000  0.02280000  0.73820000  1.0
  H  H150  1  0.05570000  0.39550000  0.51240000  1.0
  H  H151  1  0.04410000  0.36020000  0.65780000  1.0
  H  H152  1  0.81190000  0.92150000  0.74260000  1.0
  H  H153  1  0.77320000  0.32900000  0.24690000  1.0
  H  H154  1  0.98090000  0.95750000  0.11600000  1.0
  H  H155  1  0.07520000  0.88120000  0.16240000  1.0
  H  H156  1  0.67520000  0.16920000  0.33370000  1.0
  H  H157  1  0.82470000  0.31560000  0.34510000  1.0
  H  H158  1  0.69780000  0.03860000  0.83680000  1.0
  H  H159  1  0.63310000  0.18180000  0.23470000  1.0
  H  H160  1  0.79690000  0.63540000  0.54830000  1.0
  H  H161  1  0.52330000  0.38350000  0.53500000  1.0
  H  H162  1  0.81950000  0.58770000  0.04390000  1.0
  H  H163  1  0.55350000  0.78710000  0.88800000  1.0
  H  H164  1  0.70040000  0.65750000  0.35040000  1.0
  H  H165  1  0.42380000  0.31670000  0.48290000  1.0
  H  H166  1  0.63500000  0.43820000  0.65900000  1.0
  H  H167  1  0.71480000  0.55880000  0.84730000  1.0
  H  H168  1  0.66170000  0.63160000  0.89200000  1.0
  H  H169  1  0.54280000  0.83100000  0.03790000  1.0
  H  H170  1  0.86740000  0.51830000  0.99380000  1.0
  H  H171  1  0.64340000  0.58890000  0.39440000  1.0
  H  H172  1  0.84760000  0.70570000  0.49910000  1.0
  H  H173  1  0.85010000  0.52280000  0.76180000  1.0
  H  H174  1  0.44430000  0.89550000  0.98760000  1.0
  H  H175  1  0.45590000  0.86020000  0.84220000  1.0
  H  H176  1  0.68810000  0.42150000  0.75740000  1.0
  H  H177  1  0.72680000  0.82900000  0.25310000  1.0
  H  H178  1  0.51910000  0.45750000  0.38400000  1.0
  H  H179  1  0.42480000  0.38120000  0.33760000  1.0
  H  H180  1  0.82480000  0.66920000  0.16630000  1.0
  H  H181  1  0.67530000  0.81560000  0.15490000  1.0
  H  H182  1  0.80220000  0.53860000  0.66320000  1.0
  H  H183  1  0.86690000  0.68180000  0.26530000  1.0
  H  H184  1  0.29690000  0.13540000  0.54830000  1.0
  H  H185  1  0.02330000  0.88350000  0.53500000  1.0
  H  H186  1  0.31950000  0.08770000  0.04390000  1.0
  H  H187  1  0.05350000  0.28710000  0.88800000  1.0
  H  H188  1  0.20040000  0.15750000  0.35040000  1.0
  H  H189  1  0.92380000  0.81670000  0.48290000  1.0
  H  H190  1  0.13500000  0.93820000  0.65900000  1.0
  H  H191  1  0.21480000  0.05880000  0.84730000  1.0
  H  H192  1  0.16170000  0.13160000  0.89200000  1.0
  H  H193  1  0.04280000  0.33100000  0.03790000  1.0
  H  H194  1  0.36740000  0.01830000  0.99380000  1.0
  H  H195  1  0.14340000  0.08890000  0.39440000  1.0
  H  H196  1  0.34760000  0.20570000  0.49910000  1.0
  H  H197  1  0.35010000  0.02280000  0.76180000  1.0
  H  H198  1  0.94430000  0.39550000  0.98760000  1.0
  H  H199  1  0.95590000  0.36020000  0.84220000  1.0
  H  H200  1  0.18810000  0.92150000  0.75740000  1.0
  H  H201  1  0.22680000  0.32900000  0.25310000  1.0
  H  H202  1  0.01910000  0.95750000  0.38400000  1.0
  H  H203  1  0.92480000  0.88120000  0.33760000  1.0
  H  H204  1  0.32480000  0.16920000  0.16630000  1.0
  H  H205  1  0.17530000  0.31560000  0.15490000  1.0
  H  H206  1  0.30220000  0.03860000  0.66320000  1.0
  H  H207  1  0.36690000  0.18180000  0.26530000  1.0
  C  C208  1  0.59750000  0.52830000  0.99890000  1.0
  C  C209  1  0.62340000  0.24400000  0.50040000  1.0
  C  C210  1  0.55970000  0.19870000  0.46800000  1.0
  C  C211  1  0.77640000  0.36150000  0.00810000  1.0
  C  C212  1  0.50360000  0.61500000  0.99480000  1.0
  C  C213  1  0.79750000  0.41640000  0.50380000  1.0
  C  C214  1  0.53250000  0.19040000  0.40940000  1.0
  C  C215  1  0.68140000  0.44780000  0.00500000  1.0
  C  C216  1  0.71980000  0.34710000  0.89050000  1.0
  C  C217  1  0.44370000  0.65510000  0.96280000  1.0
  C  C218  1  0.67900000  0.54400000  0.17940000  1.0
  C  C219  1  0.70960000  0.27400000  0.58580000  1.0
  C  C220  1  0.53300000  0.57270000  0.96490000  1.0
  C  C221  1  0.74270000  0.26370000  0.64920000  1.0
  C  C222  1  0.73520000  0.37910000  0.47300000  1.0
  C  C223  1  0.67990000  0.49800000  0.08570000  1.0
  C  C224  1  0.71200000  0.50760000  0.15040000  1.0
  C  C225  1  0.73580000  0.43510000  0.38720000  1.0
  C  C226  1  0.70380000  0.39050000  0.41380000  1.0
  C  C227  1  0.70460000  0.32780000  0.50310000  1.0
  C  C228  1  0.71460000  0.39900000  0.97610000  1.0
  C  C229  1  0.52560000  0.16500000  0.49780000  1.0
  C  C230  1  0.82520000  0.45900000  0.47340000  1.0
  C  C231  1  0.68560000  0.38940000  0.91670000  1.0
  C  C232  1  0.80650000  0.31920000  0.97790000  1.0
  C  C233  1  0.80620000  0.49490000  0.24080000  1.0
  C  C234  1  0.46690000  0.12650000  0.46730000  1.0
  C  C235  1  0.47300000  0.14790000  0.38200000  1.0
  C  C236  1  0.71110000  0.55390000  0.23840000  1.0
  C  C237  1  0.74560000  0.20580000  0.73550000  1.0
  C  C238  1  0.50150000  0.57220000  0.90530000  1.0
  C  C239  1  0.44380000  0.61630000  0.87780000  1.0
  C  C240  1  0.80200000  0.30020000  0.68280000  1.0
  C  C241  1  0.71450000  0.21290000  0.67650000  1.0
  C  C242  1  0.77770000  0.48400000  0.18160000  1.0
  C  C243  1  0.82770000  0.29050000  0.74260000  1.0
  C  C244  1  0.09750000  0.02830000  0.99890000  1.0
  C  C245  1  0.12340000  0.74400000  0.50040000  1.0
  C  C246  1  0.05970000  0.69870000  0.46800000  1.0
  C  C247  1  0.27640000  0.86150000  0.00810000  1.0
  C  C248  1  0.00360000  0.11500000  0.99480000  1.0
  C  C249  1  0.29750000  0.91640000  0.50380000  1.0
  C  C250  1  0.03250000  0.69040000  0.40940000  1.0
  C  C251  1  0.18140000  0.94780000  0.00500000  1.0
  C  C252  1  0.21980000  0.84710000  0.89050000  1.0
  C  C253  1  0.94370000  0.15510000  0.96280000  1.0
  C  C254  1  0.17900000  0.04400000  0.17940000  1.0
  C  C255  1  0.20960000  0.77400000  0.58580000  1.0
  C  C256  1  0.03300000  0.07270000  0.96490000  1.0
  C  C257  1  0.24270000  0.76370000  0.64920000  1.0
  C  C258  1  0.23520000  0.87910000  0.47300000  1.0
  C  C259  1  0.17990000  0.99800000  0.08570000  1.0
  C  C260  1  0.21200000  0.00760000  0.15040000  1.0
  C  C261  1  0.23580000  0.93510000  0.38720000  1.0
  C  C262  1  0.20380000  0.89050000  0.41380000  1.0
  C  C263  1  0.20460000  0.82780000  0.50310000  1.0
  C  C264  1  0.21460000  0.89900000  0.97610000  1.0
  C  C265  1  0.02560000  0.66500000  0.49780000  1.0
  C  C266  1  0.32520000  0.95900000  0.47340000  1.0
  C  C267  1  0.18560000  0.88940000  0.91670000  1.0
  C  C268  1  0.30650000  0.81920000  0.97790000  1.0
  C  C269  1  0.30620000  0.99490000  0.24080000  1.0
  C  C270  1  0.96690000  0.62650000  0.46730000  1.0
  C  C271  1  0.97300000  0.64790000  0.38200000  1.0
  C  C272  1  0.21110000  0.05390000  0.23840000  1.0
  C  C273  1  0.24560000  0.70580000  0.73550000  1.0
  C  C274  1  0.00150000  0.07220000  0.90530000  1.0
  C  C275  1  0.94380000  0.11630000  0.87780000  1.0
  C  C276  1  0.30200000  0.80020000  0.68280000  1.0
  C  C277  1  0.21450000  0.71290000  0.67650000  1.0
  C  C278  1  0.27770000  0.98400000  0.18160000  1.0
  C  C279  1  0.32770000  0.79050000  0.74260000  1.0
  C  C280  1  0.40250000  0.52830000  0.50110000  1.0
  C  C281  1  0.37660000  0.24400000  0.99960000  1.0
  C  C282  1  0.44030000  0.19870000  0.03200000  1.0
  C  C283  1  0.22360000  0.36150000  0.49190000  1.0
  C  C284  1  0.49640000  0.61500000  0.50520000  1.0
  C  C285  1  0.20250000  0.41640000  0.99620000  1.0
  C  C286  1  0.46750000  0.19040000  0.09060000  1.0
  C  C287  1  0.31860000  0.44780000  0.49500000  1.0
  C  C288  1  0.28020000  0.34710000  0.60950000  1.0
  C  C289  1  0.55630000  0.65510000  0.53720000  1.0
  C  C290  1  0.32100000  0.54400000  0.32060000  1.0
  C  C291  1  0.29040000  0.27400000  0.91420000  1.0
  C  C292  1  0.46700000  0.57270000  0.53510000  1.0
  C  C293  1  0.25730000  0.26370000  0.85080000  1.0
  C  C294  1  0.26480000  0.37910000  0.02700000  1.0
  C  C295  1  0.32010000  0.49800000  0.41430000  1.0
  C  C296  1  0.28800000  0.50760000  0.34960000  1.0
  C  C297  1  0.26420000  0.43510000  0.11280000  1.0
  C  C298  1  0.29620000  0.39050000  0.08620000  1.0
  C  C299  1  0.29540000  0.32780000  0.99690000  1.0
  C  C300  1  0.28540000  0.39900000  0.52390000  1.0
  C  C301  1  0.47440000  0.16500000  0.00220000  1.0
  C  C302  1  0.17480000  0.45900000  0.02660000  1.0
  C  C303  1  0.31440000  0.38940000  0.58330000  1.0
  C  C304  1  0.19350000  0.31920000  0.52210000  1.0
  C  C305  1  0.19380000  0.49490000  0.25920000  1.0
  C  C306  1  0.53310000  0.12650000  0.03270000  1.0
  C  C307  1  0.52700000  0.14790000  0.11800000  1.0
  C  C308  1  0.28890000  0.55390000  0.26160000  1.0
  C  C309  1  0.25440000  0.20580000  0.76450000  1.0
  C  C310  1  0.49850000  0.57220000  0.59470000  1.0
  C  C311  1  0.55620000  0.61630000  0.62220000  1.0
  C  C312  1  0.19800000  0.30020000  0.81720000  1.0
  C  C313  1  0.28550000  0.21290000  0.82350000  1.0
  C  C314  1  0.22230000  0.48400000  0.31840000  1.0
  C  C315  1  0.17230000  0.29050000  0.75740000  1.0
  C  C316  1  0.90250000  0.02830000  0.50110000  1.0
  C  C317  1  0.87660000  0.74400000  0.99960000  1.0
  C  C318  1  0.94030000  0.69870000  0.03200000  1.0
  C  C319  1  0.72360000  0.86150000  0.49190000  1.0
  C  C320  1  0.99640000  0.11500000  0.50520000  1.0
  C  C321  1  0.70250000  0.91640000  0.99620000  1.0
  C  C322  1  0.96750000  0.69040000  0.09060000  1.0
  C  C323  1  0.81860000  0.94780000  0.49500000  1.0
  C  C324  1  0.78020000  0.84710000  0.60950000  1.0
  C  C325  1  0.05630000  0.15510000  0.53720000  1.0
  C  C326  1  0.82100000  0.04400000  0.32060000  1.0
  C  C327  1  0.79040000  0.77400000  0.91420000  1.0
  C  C328  1  0.96700000  0.07270000  0.53510000  1.0
  C  C329  1  0.75730000  0.76370000  0.85080000  1.0
  C  C330  1  0.76480000  0.87910000  0.02700000  1.0
  C  C331  1  0.82010000  0.99800000  0.41430000  1.0
  C  C332  1  0.78800000  0.00760000  0.34960000  1.0
  C  C333  1  0.76420000  0.93510000  0.11280000  1.0
  C  C334  1  0.79620000  0.89050000  0.08620000  1.0
  C  C335  1  0.79540000  0.82780000  0.99690000  1.0
  C  C336  1  0.78540000  0.89900000  0.52390000  1.0
  C  C337  1  0.97440000  0.66500000  0.00220000  1.0
  C  C338  1  0.67480000  0.95900000  0.02660000  1.0
  C  C339  1  0.81440000  0.88940000  0.58330000  1.0
  C  C340  1  0.69350000  0.81920000  0.52210000  1.0
  C  C341  1  0.69380000  0.99490000  0.25920000  1.0
  C  C342  1  0.03310000  0.62650000  0.03270000  1.0
  C  C343  1  0.02700000  0.64790000  0.11800000  1.0
  C  C344  1  0.78890000  0.05390000  0.26160000  1.0
  C  C345  1  0.75440000  0.70580000  0.76450000  1.0
  C  C346  1  0.99850000  0.07220000  0.59470000  1.0
  C  C347  1  0.05620000  0.11630000  0.62220000  1.0
  C  C348  1  0.69800000  0.80020000  0.81720000  1.0
  C  C349  1  0.78550000  0.71290000  0.82350000  1.0
  C  C350  1  0.72230000  0.98400000  0.31840000  1.0
  C  C351  1  0.67230000  0.79050000  0.75740000  1.0
  C  C352  1  0.40250000  0.47170000  0.00110000  1.0
  C  C353  1  0.37660000  0.75600000  0.49960000  1.0
  C  C354  1  0.44030000  0.80130000  0.53200000  1.0
  C  C355  1  0.22360000  0.63850000  0.99190000  1.0
  C  C356  1  0.49640000  0.38500000  0.00520000  1.0
  C  C357  1  0.20250000  0.58360000  0.49620000  1.0
  C  C358  1  0.46750000  0.80960000  0.59060000  1.0
  C  C359  1  0.31860000  0.55220000  0.99500000  1.0
  C  C360  1  0.28020000  0.65290000  0.10950000  1.0
  C  C361  1  0.55630000  0.34490000  0.03720000  1.0
  C  C362  1  0.32100000  0.45600000  0.82060000  1.0
  C  C363  1  0.29040000  0.72600000  0.41420000  1.0
  C  C364  1  0.46700000  0.42730000  0.03510000  1.0
  C  C365  1  0.25730000  0.73630000  0.35080000  1.0
  C  C366  1  0.26480000  0.62090000  0.52700000  1.0
  C  C367  1  0.32010000  0.50200000  0.91430000  1.0
  C  C368  1  0.28800000  0.49240000  0.84960000  1.0
  C  C369  1  0.26420000  0.56490000  0.61280000  1.0
  C  C370  1  0.29620000  0.60950000  0.58620000  1.0
  C  C371  1  0.29540000  0.67220000  0.49690000  1.0
  C  C372  1  0.28540000  0.60100000  0.02390000  1.0
  C  C373  1  0.47440000  0.83500000  0.50220000  1.0
  C  C374  1  0.17480000  0.54100000  0.52660000  1.0
  C  C375  1  0.31440000  0.61060000  0.08330000  1.0
  C  C376  1  0.19350000  0.68080000  0.02210000  1.0
  C  C377  1  0.19380000  0.50510000  0.75920000  1.0
  C  C378  1  0.53310000  0.87350000  0.53270000  1.0
  C  C379  1  0.52700000  0.85210000  0.61800000  1.0
  C  C380  1  0.28890000  0.44610000  0.76160000  1.0
  C  C381  1  0.25440000  0.79420000  0.26450000  1.0
  C  C382  1  0.49850000  0.42780000  0.09470000  1.0
  C  C383  1  0.55620000  0.38370000  0.12220000  1.0
  C  C384  1  0.19800000  0.69980000  0.31720000  1.0
  C  C385  1  0.28550000  0.78710000  0.32350000  1.0
  C  C386  1  0.22230000  0.51600000  0.81840000  1.0
  C  C387  1  0.17230000  0.70950000  0.25740000  1.0
  C  C388  1  0.90250000  0.97170000  0.00110000  1.0
  C  C389  1  0.87660000  0.25600000  0.49960000  1.0
  C  C390  1  0.94030000  0.30130000  0.53200000  1.0
  C  C391  1  0.72360000  0.13850000  0.99190000  1.0
  C  C392  1  0.99640000  0.88500000  0.00520000  1.0
  C  C393  1  0.70250000  0.08360000  0.49620000  1.0
  C  C394  1  0.96750000  0.30960000  0.59060000  1.0
  C  C395  1  0.81860000  0.05220000  0.99500000  1.0
  C  C396  1  0.78020000  0.15290000  0.10950000  1.0
  C  C397  1  0.05630000  0.84490000  0.03720000  1.0
  C  C398  1  0.82100000  0.95600000  0.82060000  1.0
  C  C399  1  0.79040000  0.22600000  0.41420000  1.0
  C  C400  1  0.96700000  0.92730000  0.03510000  1.0
  C  C401  1  0.75730000  0.23630000  0.35080000  1.0
  C  C402  1  0.76480000  0.12090000  0.52700000  1.0
  C  C403  1  0.82010000  0.00200000  0.91430000  1.0
  C  C404  1  0.78800000  0.99240000  0.84960000  1.0
  C  C405  1  0.76420000  0.06490000  0.61280000  1.0
  C  C406  1  0.79620000  0.10950000  0.58620000  1.0
  C  C407  1  0.79540000  0.17220000  0.49690000  1.0
  C  C408  1  0.78540000  0.10100000  0.02390000  1.0
  C  C409  1  0.97440000  0.33500000  0.50220000  1.0
  C  C410  1  0.67480000  0.04100000  0.52660000  1.0
  C  C411  1  0.81440000  0.11060000  0.08330000  1.0
  C  C412  1  0.69350000  0.18080000  0.02210000  1.0
  C  C413  1  0.69380000  0.00510000  0.75920000  1.0
  C  C414  1  0.03310000  0.37350000  0.53270000  1.0
  C  C415  1  0.02700000  0.35210000  0.61800000  1.0
  C  C416  1  0.78890000  0.94610000  0.76160000  1.0
  C  C417  1  0.75440000  0.29420000  0.26450000  1.0
  C  C418  1  0.99850000  0.92780000  0.09470000  1.0
  C  C419  1  0.05620000  0.88370000  0.12220000  1.0
  C  C420  1  0.69800000  0.19980000  0.31720000  1.0
  C  C421  1  0.78550000  0.28710000  0.32350000  1.0
  C  C422  1  0.72230000  0.01600000  0.81840000  1.0
  C  C423  1  0.67230000  0.20950000  0.25740000  1.0
  C  C424  1  0.59750000  0.47170000  0.49890000  1.0
  C  C425  1  0.62340000  0.75600000  0.00040000  1.0
  C  C426  1  0.55970000  0.80130000  0.96800000  1.0
  C  C427  1  0.77640000  0.63850000  0.50810000  1.0
  C  C428  1  0.50360000  0.38500000  0.49480000  1.0
  C  C429  1  0.79750000  0.58360000  0.00380000  1.0
  C  C430  1  0.53250000  0.80960000  0.90940000  1.0
  C  C431  1  0.68140000  0.55220000  0.50500000  1.0
  C  C432  1  0.71980000  0.65290000  0.39050000  1.0
  C  C433  1  0.44370000  0.34490000  0.46280000  1.0
  C  C434  1  0.67900000  0.45600000  0.67940000  1.0
  C  C435  1  0.70960000  0.72600000  0.08580000  1.0
  C  C436  1  0.53300000  0.42730000  0.46490000  1.0
  C  C437  1  0.74270000  0.73630000  0.14920000  1.0
  C  C438  1  0.73520000  0.62090000  0.97300000  1.0
  C  C439  1  0.67990000  0.50200000  0.58570000  1.0
  C  C440  1  0.71200000  0.49240000  0.65040000  1.0
  C  C441  1  0.73580000  0.56490000  0.88720000  1.0
  C  C442  1  0.70380000  0.60950000  0.91380000  1.0
  C  C443  1  0.70460000  0.67220000  0.00310000  1.0
  C  C444  1  0.71460000  0.60100000  0.47610000  1.0
  C  C445  1  0.52560000  0.83500000  0.99780000  1.0
  C  C446  1  0.82520000  0.54100000  0.97340000  1.0
  C  C447  1  0.68560000  0.61060000  0.41670000  1.0
  C  C448  1  0.80650000  0.68080000  0.47790000  1.0
  C  C449  1  0.80620000  0.50510000  0.74080000  1.0
  C  C450  1  0.46690000  0.87350000  0.96730000  1.0
  C  C451  1  0.47300000  0.85210000  0.88200000  1.0
  C  C452  1  0.71110000  0.44610000  0.73840000  1.0
  C  C453  1  0.74560000  0.79420000  0.23550000  1.0
  C  C454  1  0.50150000  0.42780000  0.40530000  1.0
  C  C455  1  0.44380000  0.38370000  0.37780000  1.0
  C  C456  1  0.80200000  0.69980000  0.18280000  1.0
  C  C457  1  0.71450000  0.78710000  0.17650000  1.0
  C  C458  1  0.77770000  0.51600000  0.68160000  1.0
  C  C459  1  0.82770000  0.70950000  0.24260000  1.0
  C  C460  1  0.09750000  0.97170000  0.49890000  1.0
  C  C461  1  0.12340000  0.25600000  0.00040000  1.0
  C  C462  1  0.05970000  0.30130000  0.96800000  1.0
  C  C463  1  0.27640000  0.13850000  0.50810000  1.0
  C  C464  1  0.00360000  0.88500000  0.49480000  1.0
  C  C465  1  0.29750000  0.08360000  0.00380000  1.0
  C  C466  1  0.03250000  0.30960000  0.90940000  1.0
  C  C467  1  0.18140000  0.05220000  0.50500000  1.0
  C  C468  1  0.21980000  0.15290000  0.39050000  1.0
  C  C469  1  0.94370000  0.84490000  0.46280000  1.0
  C  C470  1  0.17900000  0.95600000  0.67940000  1.0
  C  C471  1  0.20960000  0.22600000  0.08580000  1.0
  C  C472  1  0.03300000  0.92730000  0.46490000  1.0
  C  C473  1  0.24270000  0.23630000  0.14920000  1.0
  C  C474  1  0.23520000  0.12090000  0.97300000  1.0
  C  C475  1  0.17990000  0.00200000  0.58570000  1.0
  C  C476  1  0.21200000  0.99240000  0.65040000  1.0
  C  C477  1  0.23580000  0.06490000  0.88720000  1.0
  C  C478  1  0.20380000  0.10950000  0.91380000  1.0
  C  C479  1  0.20460000  0.17220000  0.00310000  1.0
  C  C480  1  0.21460000  0.10100000  0.47610000  1.0
  C  C481  1  0.02560000  0.33500000  0.99780000  1.0
  C  C482  1  0.32520000  0.04100000  0.97340000  1.0
  C  C483  1  0.18560000  0.11060000  0.41670000  1.0
  C  C484  1  0.30650000  0.18080000  0.47790000  1.0
  C  C485  1  0.30620000  0.00510000  0.74080000  1.0
  C  C486  1  0.96690000  0.37350000  0.96730000  1.0
  C  C487  1  0.97300000  0.35210000  0.88200000  1.0
  C  C488  1  0.21110000  0.94610000  0.73840000  1.0
  C  C489  1  0.24560000  0.29420000  0.23550000  1.0
  C  C490  1  0.00150000  0.92780000  0.40530000  1.0
  C  C491  1  0.94380000  0.88370000  0.37780000  1.0
  C  C492  1  0.30200000  0.19980000  0.18280000  1.0
  C  C493  1  0.21450000  0.28710000  0.17650000  1.0
  C  C494  1  0.27770000  0.01600000  0.68160000  1.0
  C  C495  1  0.32770000  0.20950000  0.24260000  1.0
  N  N496  1  0.41320000  0.65580000  0.90550000  1.0
  N  N497  1  0.77930000  0.31290000  0.92070000  1.0
  N  N498  1  0.77530000  0.52900000  0.26990000  1.0
  N  N499  1  0.62280000  0.53720000  0.05710000  1.0
  N  N500  1  0.62520000  0.48690000  0.97110000  1.0
  N  N501  1  0.71090000  0.45020000  0.06280000  1.0
  N  N502  1  0.79550000  0.46980000  0.41660000  1.0
  N  N503  1  0.43960000  0.11820000  0.41050000  1.0
  N  N504  1  0.80080000  0.24550000  0.76920000  1.0
  N  N505  1  0.73770000  0.32290000  0.56100000  1.0
  N  N506  1  0.64760000  0.29000000  0.47060000  1.0
  N  N507  1  0.65250000  0.23370000  0.55750000  1.0
  N  N508  1  0.91320000  0.15580000  0.90550000  1.0
  N  N509  1  0.27930000  0.81290000  0.92070000  1.0
  N  N510  1  0.27530000  0.02900000  0.26990000  1.0
  N  N511  1  0.12280000  0.03720000  0.05710000  1.0
  N  N512  1  0.12520000  0.98690000  0.97110000  1.0
  N  N513  1  0.21090000  0.95020000  0.06280000  1.0
  N  N514  1  0.29550000  0.96980000  0.41660000  1.0
  N  N515  1  0.93960000  0.61820000  0.41050000  1.0
  N  N516  1  0.30080000  0.74550000  0.76920000  1.0
  N  N517  1  0.23770000  0.82290000  0.56100000  1.0
  N  N518  1  0.14760000  0.79000000  0.47060000  1.0
  N  N519  1  0.15250000  0.73370000  0.55750000  1.0
  N  N520  1  0.58680000  0.65580000  0.59450000  1.0
  N  N521  1  0.22070000  0.31290000  0.57930000  1.0
  N  N522  1  0.22470000  0.52900000  0.23010000  1.0
  N  N523  1  0.37720000  0.53720000  0.44290000  1.0
  N  N524  1  0.37480000  0.48690000  0.52890000  1.0
  N  N525  1  0.28910000  0.45020000  0.43720000  1.0
  N  N526  1  0.20450000  0.46980000  0.08340000  1.0
  N  N527  1  0.56040000  0.11820000  0.08950000  1.0
  N  N528  1  0.19920000  0.24550000  0.73080000  1.0
  N  N529  1  0.26230000  0.32290000  0.93900000  1.0
  N  N530  1  0.35240000  0.29000000  0.02940000  1.0
  N  N531  1  0.34750000  0.23370000  0.94250000  1.0
  N  N532  1  0.08680000  0.15580000  0.59450000  1.0
  N  N533  1  0.72070000  0.81290000  0.57930000  1.0
  N  N534  1  0.72470000  0.02900000  0.23010000  1.0
  N  N535  1  0.87720000  0.03720000  0.44290000  1.0
  N  N536  1  0.87480000  0.98690000  0.52890000  1.0
  N  N537  1  0.78910000  0.95020000  0.43720000  1.0
  N  N538  1  0.70450000  0.96980000  0.08340000  1.0
  N  N539  1  0.06040000  0.61820000  0.08950000  1.0
  N  N540  1  0.69920000  0.74550000  0.73080000  1.0
  N  N541  1  0.76230000  0.82290000  0.93900000  1.0
  N  N542  1  0.85240000  0.79000000  0.02940000  1.0
  N  N543  1  0.84750000  0.73370000  0.94250000  1.0
  N  N544  1  0.58680000  0.34420000  0.09450000  1.0
  N  N545  1  0.22070000  0.68710000  0.07930000  1.0
  N  N546  1  0.22470000  0.47100000  0.73010000  1.0
  N  N547  1  0.37720000  0.46280000  0.94290000  1.0
  N  N548  1  0.37480000  0.51310000  0.02890000  1.0
  N  N549  1  0.28910000  0.54980000  0.93720000  1.0
  N  N550  1  0.20450000  0.53020000  0.58340000  1.0
  N  N551  1  0.56040000  0.88180000  0.58950000  1.0
  N  N552  1  0.19920000  0.75450000  0.23080000  1.0
  N  N553  1  0.26230000  0.67710000  0.43900000  1.0
  N  N554  1  0.35240000  0.71000000  0.52940000  1.0
  N  N555  1  0.34750000  0.76630000  0.44250000  1.0
  N  N556  1  0.08680000  0.84420000  0.09450000  1.0
  N  N557  1  0.72070000  0.18710000  0.07930000  1.0
  N  N558  1  0.72470000  0.97100000  0.73010000  1.0
  N  N559  1  0.87720000  0.96280000  0.94290000  1.0
  N  N560  1  0.87480000  0.01310000  0.02890000  1.0
  N  N561  1  0.78910000  0.04980000  0.93720000  1.0
  N  N562  1  0.70450000  0.03020000  0.58340000  1.0
  N  N563  1  0.06040000  0.38180000  0.58950000  1.0
  N  N564  1  0.69920000  0.25450000  0.23080000  1.0
  N  N565  1  0.76230000  0.17710000  0.43900000  1.0
  N  N566  1  0.85240000  0.21000000  0.52940000  1.0
  N  N567  1  0.84750000  0.26630000  0.44250000  1.0
  N  N568  1  0.41320000  0.34420000  0.40550000  1.0
  N  N569  1  0.77930000  0.68710000  0.42070000  1.0
  N  N570  1  0.77530000  0.47100000  0.76990000  1.0
  N  N571  1  0.62280000  0.46280000  0.55710000  1.0
  N  N572  1  0.62520000  0.51310000  0.47110000  1.0
  N  N573  1  0.71090000  0.54980000  0.56280000  1.0
  N  N574  1  0.79550000  0.53020000  0.91660000  1.0
  N  N575  1  0.43960000  0.88180000  0.91050000  1.0
  N  N576  1  0.80080000  0.75450000  0.26920000  1.0
  N  N577  1  0.73770000  0.67710000  0.06100000  1.0
  N  N578  1  0.64760000  0.71000000  0.97060000  1.0
  N  N579  1  0.65250000  0.76630000  0.05750000  1.0
  N  N580  1  0.91320000  0.84420000  0.40550000  1.0
  N  N581  1  0.27930000  0.18710000  0.42070000  1.0
  N  N582  1  0.27530000  0.97100000  0.76990000  1.0
  N  N583  1  0.12280000  0.96280000  0.55710000  1.0
  N  N584  1  0.12520000  0.01310000  0.47110000  1.0
  N  N585  1  0.21090000  0.04980000  0.56280000  1.0
  N  N586  1  0.29550000  0.03020000  0.91660000  1.0
  N  N587  1  0.93960000  0.38180000  0.91050000  1.0
  N  N588  1  0.30080000  0.25450000  0.26920000  1.0
  N  N589  1  0.23770000  0.17710000  0.06100000  1.0
  N  N590  1  0.14760000  0.21000000  0.97060000  1.0
  N  N591  1  0.15250000  0.26630000  0.05750000  1.0
