# generated using pymatgen
data_AgH12(C3N)6
_symmetry_space_group_name_H-M   'P 1'
_cell_length_a   22.05320000
_cell_length_b   16.38280000
_cell_length_c   25.68090000
_cell_angle_alpha   90.00000000
_cell_angle_beta   115.39100000
_cell_angle_gamma   90.00000000
_symmetry_Int_Tables_number   1
_chemical_formula_structural   AgH12(C3N)6
_chemical_formula_sum   'Ag16 H192 C288 N96'
_cell_volume   8382.07127862
_cell_formula_units_Z   16
loop_
 _symmetry_equiv_pos_site_id
 _symmetry_equiv_pos_as_xyz
  1  'x, y, z'
loop_
 _atom_site_type_symbol
 _atom_site_label
 _atom_site_symmetry_multiplicity
 _atom_site_fract_x
 _atom_site_fract_y
 _atom_site_fract_z
 _atom_site_occupancy
  Ag  Ag0  1  0.34389000  0.45794000  0.36796000  1.0
  Ag  Ag1  1  0.82301000  0.25006000  0.86755000  1.0
  Ag  Ag2  1  0.84389000  0.95794000  0.36796000  1.0
  Ag  Ag3  1  0.32301000  0.75006000  0.86755000  1.0
  Ag  Ag4  1  0.65611000  0.45794000  0.13204000  1.0
  Ag  Ag5  1  0.17699000  0.25006000  0.63245000  1.0
  Ag  Ag6  1  0.15611000  0.95794000  0.13204000  1.0
  Ag  Ag7  1  0.67699000  0.75006000  0.63245000  1.0
  Ag  Ag8  1  0.65611000  0.54206000  0.63204000  1.0
  Ag  Ag9  1  0.17699000  0.74994000  0.13245000  1.0
  Ag  Ag10  1  0.15611000  0.04206000  0.63204000  1.0
  Ag  Ag11  1  0.67699000  0.24994000  0.13245000  1.0
  Ag  Ag12  1  0.34389000  0.54206000  0.86796000  1.0
  Ag  Ag13  1  0.82301000  0.74994000  0.36755000  1.0
  Ag  Ag14  1  0.84389000  0.04206000  0.86796000  1.0
  Ag  Ag15  1  0.32301000  0.24994000  0.36755000  1.0
  H  H16  1  0.02180000  0.38200000  0.03690000  1.0
  H  H17  1  0.55470000  0.28980000  0.39040000  1.0
  H  H18  1  0.29850000  0.63390000  0.04950000  1.0
  H  H19  1  0.71400000  0.06090000  0.34900000  1.0
  H  H20  1  0.19930000  0.65580000  0.85300000  1.0
  H  H21  1  0.92320000  0.31490000  0.98580000  1.0
  H  H22  1  0.54390000  0.33100000  0.54030000  1.0
  H  H23  1  0.13410000  0.43950000  0.16200000  1.0
  H  H24  1  0.35030000  0.52370000  0.26380000  1.0
  H  H25  1  0.44490000  0.39910000  0.49000000  1.0
  H  H26  1  0.86760000  0.01640000  0.49500000  1.0
  H  H27  1  0.86550000  0.17360000  0.76740000  1.0
  H  H28  1  0.14440000  0.58470000  0.89650000  1.0
  H  H29  1  0.82090000  0.08840000  0.54540000  1.0
  H  H30  1  0.34930000  0.70260000  0.00080000  1.0
  H  H31  1  0.45590000  0.36200000  0.34480000  1.0
  H  H32  1  0.18780000  0.42450000  0.25990000  1.0
  H  H33  1  0.02080000  0.45320000  0.88690000  1.0
  H  H34  1  0.30140000  0.54250000  0.16580000  1.0
  H  H35  1  0.66260000  0.13390000  0.39420000  1.0
  H  H36  1  0.92310000  0.38030000  0.83970000  1.0
  H  H37  1  0.72660000  0.32860000  0.75540000  1.0
  H  H38  1  0.67780000  0.31930000  0.65680000  1.0
  H  H39  1  0.82270000  0.16180000  0.66880000  1.0
  H  H40  1  0.52180000  0.88200000  0.03690000  1.0
  H  H41  1  0.05470000  0.78980000  0.39040000  1.0
  H  H42  1  0.79850000  0.13390000  0.04950000  1.0
  H  H43  1  0.21400000  0.56090000  0.34900000  1.0
  H  H44  1  0.69930000  0.15580000  0.85300000  1.0
  H  H45  1  0.42320000  0.81490000  0.98580000  1.0
  H  H46  1  0.04390000  0.83100000  0.54030000  1.0
  H  H47  1  0.63410000  0.93950000  0.16200000  1.0
  H  H48  1  0.85030000  0.02370000  0.26380000  1.0
  H  H49  1  0.94490000  0.89910000  0.49000000  1.0
  H  H50  1  0.36760000  0.51640000  0.49500000  1.0
  H  H51  1  0.36550000  0.67360000  0.76740000  1.0
  H  H52  1  0.64440000  0.08470000  0.89650000  1.0
  H  H53  1  0.32090000  0.58840000  0.54540000  1.0
  H  H54  1  0.84930000  0.20260000  0.00080000  1.0
  H  H55  1  0.95590000  0.86200000  0.34480000  1.0
  H  H56  1  0.68780000  0.92450000  0.25990000  1.0
  H  H57  1  0.52080000  0.95320000  0.88690000  1.0
  H  H58  1  0.80140000  0.04250000  0.16580000  1.0
  H  H59  1  0.16260000  0.63390000  0.39420000  1.0
  H  H60  1  0.42310000  0.88030000  0.83970000  1.0
  H  H61  1  0.22660000  0.82860000  0.75540000  1.0
  H  H62  1  0.17780000  0.81930000  0.65680000  1.0
  H  H63  1  0.32270000  0.66180000  0.66880000  1.0
  H  H64  1  0.97820000  0.38200000  0.46310000  1.0
  H  H65  1  0.44530000  0.28980000  0.10960000  1.0
  H  H66  1  0.70150000  0.63390000  0.45050000  1.0
  H  H67  1  0.28600000  0.06090000  0.15100000  1.0
  H  H68  1  0.80070000  0.65580000  0.64700000  1.0
  H  H69  1  0.07680000  0.31490000  0.51420000  1.0
  H  H70  1  0.45610000  0.33100000  0.95970000  1.0
  H  H71  1  0.86590000  0.43950000  0.33800000  1.0
  H  H72  1  0.64970000  0.52370000  0.23620000  1.0
  H  H73  1  0.55510000  0.39910000  0.01000000  1.0
  H  H74  1  0.13240000  0.01640000  0.00500000  1.0
  H  H75  1  0.13450000  0.17360000  0.73260000  1.0
  H  H76  1  0.85560000  0.58470000  0.60350000  1.0
  H  H77  1  0.17910000  0.08840000  0.95460000  1.0
  H  H78  1  0.65070000  0.70260000  0.49920000  1.0
  H  H79  1  0.54410000  0.36200000  0.15520000  1.0
  H  H80  1  0.81220000  0.42450000  0.24010000  1.0
  H  H81  1  0.97920000  0.45320000  0.61310000  1.0
  H  H82  1  0.69860000  0.54250000  0.33420000  1.0
  H  H83  1  0.33740000  0.13390000  0.10580000  1.0
  H  H84  1  0.07690000  0.38030000  0.66030000  1.0
  H  H85  1  0.27340000  0.32860000  0.74460000  1.0
  H  H86  1  0.32220000  0.31930000  0.84320000  1.0
  H  H87  1  0.17730000  0.16180000  0.83120000  1.0
  H  H88  1  0.47820000  0.88200000  0.46310000  1.0
  H  H89  1  0.94530000  0.78980000  0.10960000  1.0
  H  H90  1  0.20150000  0.13390000  0.45050000  1.0
  H  H91  1  0.78600000  0.56090000  0.15100000  1.0
  H  H92  1  0.30070000  0.15580000  0.64700000  1.0
  H  H93  1  0.57680000  0.81490000  0.51420000  1.0
  H  H94  1  0.95610000  0.83100000  0.95970000  1.0
  H  H95  1  0.36590000  0.93950000  0.33800000  1.0
  H  H96  1  0.14970000  0.02370000  0.23620000  1.0
  H  H97  1  0.05510000  0.89910000  0.01000000  1.0
  H  H98  1  0.63240000  0.51640000  0.00500000  1.0
  H  H99  1  0.63450000  0.67360000  0.73260000  1.0
  H  H100  1  0.35560000  0.08470000  0.60350000  1.0
  H  H101  1  0.67910000  0.58840000  0.95460000  1.0
  H  H102  1  0.15070000  0.20260000  0.49920000  1.0
  H  H103  1  0.04410000  0.86200000  0.15520000  1.0
  H  H104  1  0.31220000  0.92450000  0.24010000  1.0
  H  H105  1  0.47920000  0.95320000  0.61310000  1.0
  H  H106  1  0.19860000  0.04250000  0.33420000  1.0
  H  H107  1  0.83740000  0.63390000  0.10580000  1.0
  H  H108  1  0.57690000  0.88030000  0.66030000  1.0
  H  H109  1  0.77340000  0.82860000  0.74460000  1.0
  H  H110  1  0.82220000  0.81930000  0.84320000  1.0
  H  H111  1  0.67730000  0.66180000  0.83120000  1.0
  H  H112  1  0.97820000  0.61800000  0.96310000  1.0
  H  H113  1  0.44530000  0.71020000  0.60960000  1.0
  H  H114  1  0.70150000  0.36610000  0.95050000  1.0
  H  H115  1  0.28600000  0.93910000  0.65100000  1.0
  H  H116  1  0.80070000  0.34420000  0.14700000  1.0
  H  H117  1  0.07680000  0.68510000  0.01420000  1.0
  H  H118  1  0.45610000  0.66900000  0.45970000  1.0
  H  H119  1  0.86590000  0.56050000  0.83800000  1.0
  H  H120  1  0.64970000  0.47630000  0.73620000  1.0
  H  H121  1  0.55510000  0.60090000  0.51000000  1.0
  H  H122  1  0.13240000  0.98360000  0.50500000  1.0
  H  H123  1  0.13450000  0.82640000  0.23260000  1.0
  H  H124  1  0.85560000  0.41530000  0.10350000  1.0
  H  H125  1  0.17910000  0.91160000  0.45460000  1.0
  H  H126  1  0.65070000  0.29740000  0.99920000  1.0
  H  H127  1  0.54410000  0.63800000  0.65520000  1.0
  H  H128  1  0.81220000  0.57550000  0.74010000  1.0
  H  H129  1  0.97920000  0.54680000  0.11310000  1.0
  H  H130  1  0.69860000  0.45750000  0.83420000  1.0
  H  H131  1  0.33740000  0.86610000  0.60580000  1.0
  H  H132  1  0.07690000  0.61970000  0.16030000  1.0
  H  H133  1  0.27340000  0.67140000  0.24460000  1.0
  H  H134  1  0.32220000  0.68070000  0.34320000  1.0
  H  H135  1  0.17730000  0.83820000  0.33120000  1.0
  H  H136  1  0.47820000  0.11800000  0.96310000  1.0
  H  H137  1  0.94530000  0.21020000  0.60960000  1.0
  H  H138  1  0.20150000  0.86610000  0.95050000  1.0
  H  H139  1  0.78600000  0.43910000  0.65100000  1.0
  H  H140  1  0.30070000  0.84420000  0.14700000  1.0
  H  H141  1  0.57680000  0.18510000  0.01420000  1.0
  H  H142  1  0.95610000  0.16900000  0.45970000  1.0
  H  H143  1  0.36590000  0.06050000  0.83800000  1.0
  H  H144  1  0.14970000  0.97630000  0.73620000  1.0
  H  H145  1  0.05510000  0.10090000  0.51000000  1.0
  H  H146  1  0.63240000  0.48360000  0.50500000  1.0
  H  H147  1  0.63450000  0.32640000  0.23260000  1.0
  H  H148  1  0.35560000  0.91530000  0.10350000  1.0
  H  H149  1  0.67910000  0.41160000  0.45460000  1.0
  H  H150  1  0.15070000  0.79740000  0.99920000  1.0
  H  H151  1  0.04410000  0.13800000  0.65520000  1.0
  H  H152  1  0.31220000  0.07550000  0.74010000  1.0
  H  H153  1  0.47920000  0.04680000  0.11310000  1.0
  H  H154  1  0.19860000  0.95750000  0.83420000  1.0
  H  H155  1  0.83740000  0.36610000  0.60580000  1.0
  H  H156  1  0.57690000  0.11970000  0.16030000  1.0
  H  H157  1  0.77340000  0.17140000  0.24460000  1.0
  H  H158  1  0.82220000  0.18070000  0.34320000  1.0
  H  H159  1  0.67730000  0.33820000  0.33120000  1.0
  H  H160  1  0.02180000  0.61800000  0.53690000  1.0
  H  H161  1  0.55470000  0.71020000  0.89040000  1.0
  H  H162  1  0.29850000  0.36610000  0.54950000  1.0
  H  H163  1  0.71400000  0.93910000  0.84900000  1.0
  H  H164  1  0.19930000  0.34420000  0.35300000  1.0
  H  H165  1  0.92320000  0.68510000  0.48580000  1.0
  H  H166  1  0.54390000  0.66900000  0.04030000  1.0
  H  H167  1  0.13410000  0.56050000  0.66200000  1.0
  H  H168  1  0.35030000  0.47630000  0.76380000  1.0
  H  H169  1  0.44490000  0.60090000  0.99000000  1.0
  H  H170  1  0.86760000  0.98360000  0.99500000  1.0
  H  H171  1  0.86550000  0.82640000  0.26740000  1.0
  H  H172  1  0.14440000  0.41530000  0.39650000  1.0
  H  H173  1  0.82090000  0.91160000  0.04540000  1.0
  H  H174  1  0.34930000  0.29740000  0.50080000  1.0
  H  H175  1  0.45590000  0.63800000  0.84480000  1.0
  H  H176  1  0.18780000  0.57550000  0.75990000  1.0
  H  H177  1  0.02080000  0.54680000  0.38690000  1.0
  H  H178  1  0.30140000  0.45750000  0.66580000  1.0
  H  H179  1  0.66260000  0.86610000  0.89420000  1.0
  H  H180  1  0.92310000  0.61970000  0.33970000  1.0
  H  H181  1  0.72660000  0.67140000  0.25540000  1.0
  H  H182  1  0.67780000  0.68070000  0.15680000  1.0
  H  H183  1  0.82270000  0.83820000  0.16880000  1.0
  H  H184  1  0.52180000  0.11800000  0.53690000  1.0
  H  H185  1  0.05470000  0.21020000  0.89040000  1.0
  H  H186  1  0.79850000  0.86610000  0.54950000  1.0
  H  H187  1  0.21400000  0.43910000  0.84900000  1.0
  H  H188  1  0.69930000  0.84420000  0.35300000  1.0
  H  H189  1  0.42320000  0.18510000  0.48580000  1.0
  H  H190  1  0.04390000  0.16900000  0.04030000  1.0
  H  H191  1  0.63410000  0.06050000  0.66200000  1.0
  H  H192  1  0.85030000  0.97630000  0.76380000  1.0
  H  H193  1  0.94490000  0.10090000  0.99000000  1.0
  H  H194  1  0.36760000  0.48360000  0.99500000  1.0
  H  H195  1  0.36550000  0.32640000  0.26740000  1.0
  H  H196  1  0.64440000  0.91530000  0.39650000  1.0
  H  H197  1  0.32090000  0.41160000  0.04540000  1.0
  H  H198  1  0.84930000  0.79740000  0.50080000  1.0
  H  H199  1  0.95590000  0.13800000  0.84480000  1.0
  H  H200  1  0.68780000  0.07550000  0.75990000  1.0
  H  H201  1  0.52080000  0.04680000  0.38690000  1.0
  H  H202  1  0.80140000  0.95750000  0.66580000  1.0
  H  H203  1  0.16260000  0.36610000  0.89420000  1.0
  H  H204  1  0.42310000  0.11970000  0.33970000  1.0
  H  H205  1  0.22660000  0.17140000  0.25540000  1.0
  H  H206  1  0.17780000  0.18070000  0.15680000  1.0
  H  H207  1  0.32270000  0.33820000  0.16880000  1.0
  C  C208  1  0.62426000  0.25730000  0.50269000  1.0
  C  C209  1  0.00246000  0.38280000  0.99685000  1.0
  C  C210  1  0.53329000  0.31160000  0.41154000  1.0
  C  C211  1  0.27767000  0.63710000  0.00952000  1.0
  C  C212  1  0.73574000  0.06670000  0.38882000  1.0
  C  C213  1  0.56003000  0.30250000  0.47056000  1.0
  C  C214  1  0.09731000  0.46910000  0.00160000  1.0
  C  C215  1  0.21965000  0.65060000  0.89287000  1.0
  C  C216  1  0.71001000  0.22650000  0.58794000  1.0
  C  C217  1  0.94336000  0.34240000  0.96570000  1.0
  C  C218  1  0.52662000  0.33590000  0.50049000  1.0
  C  C219  1  0.74322000  0.23680000  0.65183000  1.0
  C  C220  1  0.17820000  0.45720000  0.18188000  1.0
  C  C221  1  0.30610000  0.50680000  0.24296000  1.0
  C  C222  1  0.21544000  0.60030000  0.97815000  1.0
  C  C223  1  0.46710000  0.37650000  0.46970000  1.0
  C  C224  1  0.17955000  0.50240000  0.08870000  1.0
  C  C225  1  0.03272000  0.42480000  0.96747000  1.0
  C  C226  1  0.82586000  0.04070000  0.47462000  1.0
  C  C227  1  0.82700000  0.20280000  0.74480000  1.0
  C  C228  1  0.18608000  0.60800000  0.91861000  1.0
  C  C229  1  0.79855000  0.08420000  0.50551000  1.0
  C  C230  1  0.70600000  0.17250000  0.50584000  1.0
  C  C231  1  0.18210000  0.55090000  0.00720000  1.0
  C  C232  1  0.30779000  0.67840000  0.97975000  1.0
  C  C233  1  0.47327000  0.35450000  0.38447000  1.0
  C  C234  1  0.21077000  0.44840000  0.24078000  1.0
  C  C235  1  0.00208000  0.42470000  0.90778000  1.0
  C  C236  1  0.27737000  0.51830000  0.18389000  1.0
  C  C237  1  0.70463000  0.11110000  0.41562000  1.0
  C  C238  1  0.94299000  0.38130000  0.87979000  1.0
  C  C239  1  0.21120000  0.49250000  0.15223000  1.0
  C  C240  1  0.73634000  0.12190000  0.47507000  1.0
  C  C241  1  0.74520000  0.29350000  0.73782000  1.0
  C  C242  1  0.71564000  0.28840000  0.67849000  1.0
  C  C243  1  0.80146000  0.19460000  0.68548000  1.0
  C  C244  1  0.12426000  0.75730000  0.50269000  1.0
  C  C245  1  0.50246000  0.88280000  0.99685000  1.0
  C  C246  1  0.03329000  0.81160000  0.41154000  1.0
  C  C247  1  0.77767000  0.13710000  0.00952000  1.0
  C  C248  1  0.23574000  0.56670000  0.38882000  1.0
  C  C249  1  0.06003000  0.80250000  0.47056000  1.0
  C  C250  1  0.59731000  0.96910000  0.00160000  1.0
  C  C251  1  0.71965000  0.15060000  0.89287000  1.0
  C  C252  1  0.21001000  0.72650000  0.58794000  1.0
  C  C253  1  0.44336000  0.84240000  0.96570000  1.0
  C  C254  1  0.02662000  0.83590000  0.50049000  1.0
  C  C255  1  0.24322000  0.73680000  0.65183000  1.0
  C  C256  1  0.67820000  0.95720000  0.18188000  1.0
  C  C257  1  0.80610000  0.00680000  0.24296000  1.0
  C  C258  1  0.71544000  0.10030000  0.97815000  1.0
  C  C259  1  0.96710000  0.87650000  0.46970000  1.0
  C  C260  1  0.67955000  0.00240000  0.08870000  1.0
  C  C261  1  0.53272000  0.92480000  0.96747000  1.0
  C  C262  1  0.32586000  0.54070000  0.47462000  1.0
  C  C263  1  0.32700000  0.70280000  0.74480000  1.0
  C  C264  1  0.68608000  0.10800000  0.91861000  1.0
  C  C265  1  0.29855000  0.58420000  0.50551000  1.0
  C  C266  1  0.20600000  0.67250000  0.50584000  1.0
  C  C267  1  0.68210000  0.05090000  0.00720000  1.0
  C  C268  1  0.80779000  0.17840000  0.97975000  1.0
  C  C269  1  0.97327000  0.85450000  0.38447000  1.0
  C  C270  1  0.71077000  0.94840000  0.24078000  1.0
  C  C271  1  0.50208000  0.92470000  0.90778000  1.0
  C  C272  1  0.77737000  0.01830000  0.18389000  1.0
  C  C273  1  0.20463000  0.61110000  0.41562000  1.0
  C  C274  1  0.44299000  0.88130000  0.87979000  1.0
  C  C275  1  0.71120000  0.99250000  0.15223000  1.0
  C  C276  1  0.23634000  0.62190000  0.47507000  1.0
  C  C277  1  0.24520000  0.79350000  0.73782000  1.0
  C  C278  1  0.21564000  0.78840000  0.67849000  1.0
  C  C279  1  0.30146000  0.69460000  0.68548000  1.0
  C  C280  1  0.37574000  0.25730000  0.99731000  1.0
  C  C281  1  0.99754000  0.38280000  0.50315000  1.0
  C  C282  1  0.46671000  0.31160000  0.08846000  1.0
  C  C283  1  0.72233000  0.63710000  0.49048000  1.0
  C  C284  1  0.26426000  0.06670000  0.11118000  1.0
  C  C285  1  0.43997000  0.30250000  0.02944000  1.0
  C  C286  1  0.90269000  0.46910000  0.49840000  1.0
  C  C287  1  0.78035000  0.65060000  0.60713000  1.0
  C  C288  1  0.28999000  0.22650000  0.91206000  1.0
  C  C289  1  0.05664000  0.34240000  0.53430000  1.0
  C  C290  1  0.47338000  0.33590000  0.99951000  1.0
  C  C291  1  0.25678000  0.23680000  0.84817000  1.0
  C  C292  1  0.82180000  0.45720000  0.31812000  1.0
  C  C293  1  0.69390000  0.50680000  0.25704000  1.0
  C  C294  1  0.78456000  0.60030000  0.52185000  1.0
  C  C295  1  0.53290000  0.37650000  0.03030000  1.0
  C  C296  1  0.82045000  0.50240000  0.41130000  1.0
  C  C297  1  0.96728000  0.42480000  0.53253000  1.0
  C  C298  1  0.17414000  0.04070000  0.02538000  1.0
  C  C299  1  0.17300000  0.20280000  0.75520000  1.0
  C  C300  1  0.81392000  0.60800000  0.58139000  1.0
  C  C301  1  0.20145000  0.08420000  0.99449000  1.0
  C  C302  1  0.29400000  0.17250000  0.99416000  1.0
  C  C303  1  0.81790000  0.55090000  0.49280000  1.0
  C  C304  1  0.69221000  0.67840000  0.52025000  1.0
  C  C305  1  0.52673000  0.35450000  0.11553000  1.0
  C  C306  1  0.78923000  0.44840000  0.25922000  1.0
  C  C307  1  0.99792000  0.42470000  0.59222000  1.0
  C  C308  1  0.72263000  0.51830000  0.31611000  1.0
  C  C309  1  0.29537000  0.11110000  0.08438000  1.0
  C  C310  1  0.05701000  0.38130000  0.62021000  1.0
  C  C311  1  0.78880000  0.49250000  0.34777000  1.0
  C  C312  1  0.26366000  0.12190000  0.02493000  1.0
  C  C313  1  0.25480000  0.29350000  0.76218000  1.0
  C  C314  1  0.28436000  0.28840000  0.82151000  1.0
  C  C315  1  0.19854000  0.19460000  0.81452000  1.0
  C  C316  1  0.87574000  0.75730000  0.99731000  1.0
  C  C317  1  0.49754000  0.88280000  0.50315000  1.0
  C  C318  1  0.96671000  0.81160000  0.08846000  1.0
  C  C319  1  0.22233000  0.13710000  0.49048000  1.0
  C  C320  1  0.76426000  0.56670000  0.11118000  1.0
  C  C321  1  0.93997000  0.80250000  0.02944000  1.0
  C  C322  1  0.40269000  0.96910000  0.49840000  1.0
  C  C323  1  0.28035000  0.15060000  0.60713000  1.0
  C  C324  1  0.78999000  0.72650000  0.91206000  1.0
  C  C325  1  0.55664000  0.84240000  0.53430000  1.0
  C  C326  1  0.97338000  0.83590000  0.99951000  1.0
  C  C327  1  0.75678000  0.73680000  0.84817000  1.0
  C  C328  1  0.32180000  0.95720000  0.31812000  1.0
  C  C329  1  0.19390000  0.00680000  0.25704000  1.0
  C  C330  1  0.28456000  0.10030000  0.52185000  1.0
  C  C331  1  0.03290000  0.87650000  0.03030000  1.0
  C  C332  1  0.32045000  0.00240000  0.41130000  1.0
  C  C333  1  0.46728000  0.92480000  0.53253000  1.0
  C  C334  1  0.67414000  0.54070000  0.02538000  1.0
  C  C335  1  0.67300000  0.70280000  0.75520000  1.0
  C  C336  1  0.31392000  0.10800000  0.58139000  1.0
  C  C337  1  0.70145000  0.58420000  0.99449000  1.0
  C  C338  1  0.79400000  0.67250000  0.99416000  1.0
  C  C339  1  0.31790000  0.05090000  0.49280000  1.0
  C  C340  1  0.19221000  0.17840000  0.52025000  1.0
  C  C341  1  0.02673000  0.85450000  0.11553000  1.0
  C  C342  1  0.28923000  0.94840000  0.25922000  1.0
  C  C343  1  0.49792000  0.92470000  0.59222000  1.0
  C  C344  1  0.22263000  0.01830000  0.31611000  1.0
  C  C345  1  0.79537000  0.61110000  0.08438000  1.0
  C  C346  1  0.55701000  0.88130000  0.62021000  1.0
  C  C347  1  0.28880000  0.99250000  0.34777000  1.0
  C  C348  1  0.76366000  0.62190000  0.02493000  1.0
  C  C349  1  0.75480000  0.79350000  0.76218000  1.0
  C  C350  1  0.78436000  0.78840000  0.82151000  1.0
  C  C351  1  0.69854000  0.69460000  0.81452000  1.0
  C  C352  1  0.37574000  0.74270000  0.49731000  1.0
  C  C353  1  0.99754000  0.61720000  0.00315000  1.0
  C  C354  1  0.46671000  0.68840000  0.58846000  1.0
  C  C355  1  0.72233000  0.36290000  0.99048000  1.0
  C  C356  1  0.26426000  0.93330000  0.61118000  1.0
  C  C357  1  0.43997000  0.69750000  0.52944000  1.0
  C  C358  1  0.90269000  0.53090000  0.99840000  1.0
  C  C359  1  0.78035000  0.34940000  0.10713000  1.0
  C  C360  1  0.28999000  0.77350000  0.41206000  1.0
  C  C361  1  0.05664000  0.65760000  0.03430000  1.0
  C  C362  1  0.47338000  0.66410000  0.49951000  1.0
  C  C363  1  0.25678000  0.76320000  0.34817000  1.0
  C  C364  1  0.82180000  0.54280000  0.81812000  1.0
  C  C365  1  0.69390000  0.49320000  0.75704000  1.0
  C  C366  1  0.78456000  0.39970000  0.02185000  1.0
  C  C367  1  0.53290000  0.62350000  0.53030000  1.0
  C  C368  1  0.82045000  0.49760000  0.91130000  1.0
  C  C369  1  0.96728000  0.57520000  0.03253000  1.0
  C  C370  1  0.17414000  0.95930000  0.52538000  1.0
  C  C371  1  0.17300000  0.79720000  0.25520000  1.0
  C  C372  1  0.81392000  0.39200000  0.08139000  1.0
  C  C373  1  0.20145000  0.91580000  0.49449000  1.0
  C  C374  1  0.29400000  0.82750000  0.49416000  1.0
  C  C375  1  0.81790000  0.44910000  0.99280000  1.0
  C  C376  1  0.69221000  0.32160000  0.02025000  1.0
  C  C377  1  0.52673000  0.64550000  0.61553000  1.0
  C  C378  1  0.78923000  0.55160000  0.75922000  1.0
  C  C379  1  0.99792000  0.57530000  0.09222000  1.0
  C  C380  1  0.72263000  0.48170000  0.81611000  1.0
  C  C381  1  0.29537000  0.88890000  0.58438000  1.0
  C  C382  1  0.05701000  0.61870000  0.12021000  1.0
  C  C383  1  0.78880000  0.50750000  0.84777000  1.0
  C  C384  1  0.26366000  0.87810000  0.52493000  1.0
  C  C385  1  0.25480000  0.70650000  0.26218000  1.0
  C  C386  1  0.28436000  0.71160000  0.32151000  1.0
  C  C387  1  0.19854000  0.80540000  0.31452000  1.0
  C  C388  1  0.87574000  0.24270000  0.49731000  1.0
  C  C389  1  0.49754000  0.11720000  0.00315000  1.0
  C  C390  1  0.96671000  0.18840000  0.58846000  1.0
  C  C391  1  0.22233000  0.86290000  0.99048000  1.0
  C  C392  1  0.76426000  0.43330000  0.61118000  1.0
  C  C393  1  0.93997000  0.19750000  0.52944000  1.0
  C  C394  1  0.40269000  0.03090000  0.99840000  1.0
  C  C395  1  0.28035000  0.84940000  0.10713000  1.0
  C  C396  1  0.78999000  0.27350000  0.41206000  1.0
  C  C397  1  0.55664000  0.15760000  0.03430000  1.0
  C  C398  1  0.97338000  0.16410000  0.49951000  1.0
  C  C399  1  0.75678000  0.26320000  0.34817000  1.0
  C  C400  1  0.32180000  0.04280000  0.81812000  1.0
  C  C401  1  0.19390000  0.99320000  0.75704000  1.0
  C  C402  1  0.28456000  0.89970000  0.02185000  1.0
  C  C403  1  0.03290000  0.12350000  0.53030000  1.0
  C  C404  1  0.32045000  0.99760000  0.91130000  1.0
  C  C405  1  0.46728000  0.07520000  0.03253000  1.0
  C  C406  1  0.67414000  0.45930000  0.52538000  1.0
  C  C407  1  0.67300000  0.29720000  0.25520000  1.0
  C  C408  1  0.31392000  0.89200000  0.08139000  1.0
  C  C409  1  0.70145000  0.41580000  0.49449000  1.0
  C  C410  1  0.79400000  0.32750000  0.49416000  1.0
  C  C411  1  0.31790000  0.94910000  0.99280000  1.0
  C  C412  1  0.19221000  0.82160000  0.02025000  1.0
  C  C413  1  0.02673000  0.14550000  0.61553000  1.0
  C  C414  1  0.28923000  0.05160000  0.75922000  1.0
  C  C415  1  0.49792000  0.07530000  0.09222000  1.0
  C  C416  1  0.22263000  0.98170000  0.81611000  1.0
  C  C417  1  0.79537000  0.38890000  0.58438000  1.0
  C  C418  1  0.55701000  0.11870000  0.12021000  1.0
  C  C419  1  0.28880000  0.00750000  0.84777000  1.0
  C  C420  1  0.76366000  0.37810000  0.52493000  1.0
  C  C421  1  0.75480000  0.20650000  0.26218000  1.0
  C  C422  1  0.78436000  0.21160000  0.32151000  1.0
  C  C423  1  0.69854000  0.30540000  0.31452000  1.0
  C  C424  1  0.62426000  0.74270000  0.00269000  1.0
  C  C425  1  0.00246000  0.61720000  0.49685000  1.0
  C  C426  1  0.53329000  0.68840000  0.91154000  1.0
  C  C427  1  0.27767000  0.36290000  0.50952000  1.0
  C  C428  1  0.73574000  0.93330000  0.88882000  1.0
  C  C429  1  0.56003000  0.69750000  0.97056000  1.0
  C  C430  1  0.09731000  0.53090000  0.50160000  1.0
  C  C431  1  0.21965000  0.34940000  0.39287000  1.0
  C  C432  1  0.71001000  0.77350000  0.08794000  1.0
  C  C433  1  0.94336000  0.65760000  0.46570000  1.0
  C  C434  1  0.52662000  0.66410000  0.00049000  1.0
  C  C435  1  0.74322000  0.76320000  0.15183000  1.0
  C  C436  1  0.17820000  0.54280000  0.68188000  1.0
  C  C437  1  0.30610000  0.49320000  0.74296000  1.0
  C  C438  1  0.21544000  0.39970000  0.47815000  1.0
  C  C439  1  0.46710000  0.62350000  0.96970000  1.0
  C  C440  1  0.17955000  0.49760000  0.58870000  1.0
  C  C441  1  0.03272000  0.57520000  0.46747000  1.0
  C  C442  1  0.82586000  0.95930000  0.97462000  1.0
  C  C443  1  0.82700000  0.79720000  0.24480000  1.0
  C  C444  1  0.18608000  0.39200000  0.41861000  1.0
  C  C445  1  0.79855000  0.91580000  0.00551000  1.0
  C  C446  1  0.70600000  0.82750000  0.00584000  1.0
  C  C447  1  0.18210000  0.44910000  0.50720000  1.0
  C  C448  1  0.30779000  0.32160000  0.47975000  1.0
  C  C449  1  0.47327000  0.64550000  0.88447000  1.0
  C  C450  1  0.21077000  0.55160000  0.74078000  1.0
  C  C451  1  0.00208000  0.57530000  0.40778000  1.0
  C  C452  1  0.27737000  0.48170000  0.68389000  1.0
  C  C453  1  0.70463000  0.88890000  0.91562000  1.0
  C  C454  1  0.94299000  0.61870000  0.37979000  1.0
  C  C455  1  0.21120000  0.50750000  0.65223000  1.0
  C  C456  1  0.73634000  0.87810000  0.97507000  1.0
  C  C457  1  0.74520000  0.70650000  0.23782000  1.0
  C  C458  1  0.71564000  0.71160000  0.17849000  1.0
  C  C459  1  0.80146000  0.80540000  0.18548000  1.0
  C  C460  1  0.12426000  0.24270000  0.00269000  1.0
  C  C461  1  0.50246000  0.11720000  0.49685000  1.0
  C  C462  1  0.03329000  0.18840000  0.91154000  1.0
  C  C463  1  0.77767000  0.86290000  0.50952000  1.0
  C  C464  1  0.23574000  0.43330000  0.88882000  1.0
  C  C465  1  0.06003000  0.19750000  0.97056000  1.0
  C  C466  1  0.59731000  0.03090000  0.50160000  1.0
  C  C467  1  0.71965000  0.84940000  0.39287000  1.0
  C  C468  1  0.21001000  0.27350000  0.08794000  1.0
  C  C469  1  0.44336000  0.15760000  0.46570000  1.0
  C  C470  1  0.02662000  0.16410000  0.00049000  1.0
  C  C471  1  0.24322000  0.26320000  0.15183000  1.0
  C  C472  1  0.67820000  0.04280000  0.68188000  1.0
  C  C473  1  0.80610000  0.99320000  0.74296000  1.0
  C  C474  1  0.71544000  0.89970000  0.47815000  1.0
  C  C475  1  0.96710000  0.12350000  0.96970000  1.0
  C  C476  1  0.67955000  0.99760000  0.58870000  1.0
  C  C477  1  0.53272000  0.07520000  0.46747000  1.0
  C  C478  1  0.32586000  0.45930000  0.97462000  1.0
  C  C479  1  0.32700000  0.29720000  0.24480000  1.0
  C  C480  1  0.68608000  0.89200000  0.41861000  1.0
  C  C481  1  0.29855000  0.41580000  0.00551000  1.0
  C  C482  1  0.20600000  0.32750000  0.00584000  1.0
  C  C483  1  0.68210000  0.94910000  0.50720000  1.0
  C  C484  1  0.80779000  0.82160000  0.47975000  1.0
  C  C485  1  0.97327000  0.14550000  0.88447000  1.0
  C  C486  1  0.71077000  0.05160000  0.74078000  1.0
  C  C487  1  0.50208000  0.07530000  0.40778000  1.0
  C  C488  1  0.77737000  0.98170000  0.68389000  1.0
  C  C489  1  0.20463000  0.38890000  0.91562000  1.0
  C  C490  1  0.44299000  0.11870000  0.37979000  1.0
  C  C491  1  0.71120000  0.00750000  0.65223000  1.0
  C  C492  1  0.23634000  0.37810000  0.97507000  1.0
  C  C493  1  0.24520000  0.20650000  0.23782000  1.0
  C  C494  1  0.21564000  0.21160000  0.17849000  1.0
  C  C495  1  0.30146000  0.30540000  0.18548000  1.0
  N  N496  1  0.43924000  0.38540000  0.41206000  1.0
  N  N497  1  0.79631000  0.03108000  0.41731000  1.0
  N  N498  1  0.79971000  0.25010000  0.77150000  1.0
  N  N499  1  0.64818000  0.21080000  0.47294000  1.0
  N  N500  1  0.73866000  0.17717000  0.56336000  1.0
  N  N501  1  0.65333000  0.26830000  0.55991000  1.0
  N  N502  1  0.91294000  0.34040000  0.90776000  1.0
  N  N503  1  0.28001000  0.68530000  0.92195000  1.0
  N  N504  1  0.27483000  0.47310000  0.27201000  1.0
  N  N505  1  0.12603000  0.50990000  0.97341000  1.0
  N  N506  1  0.21081000  0.54910000  0.06505000  1.0
  N  N507  1  0.12185000  0.46240000  0.05918000  1.0
  N  N508  1  0.93924000  0.88540000  0.41206000  1.0
  N  N509  1  0.29631000  0.53108000  0.41731000  1.0
  N  N510  1  0.29971000  0.75010000  0.77150000  1.0
  N  N511  1  0.14818000  0.71080000  0.47294000  1.0
  N  N512  1  0.23866000  0.67717000  0.56336000  1.0
  N  N513  1  0.15333000  0.76830000  0.55991000  1.0
  N  N514  1  0.41294000  0.84040000  0.90776000  1.0
  N  N515  1  0.78001000  0.18530000  0.92195000  1.0
  N  N516  1  0.77483000  0.97310000  0.27201000  1.0
  N  N517  1  0.62603000  0.00990000  0.97341000  1.0
  N  N518  1  0.71081000  0.04910000  0.06505000  1.0
  N  N519  1  0.62185000  0.96240000  0.05918000  1.0
  N  N520  1  0.56076000  0.38540000  0.08794000  1.0
  N  N521  1  0.20369000  0.03108000  0.08269000  1.0
  N  N522  1  0.20029000  0.25010000  0.72850000  1.0
  N  N523  1  0.35182000  0.21080000  0.02706000  1.0
  N  N524  1  0.26134000  0.17717000  0.93664000  1.0
  N  N525  1  0.34667000  0.26830000  0.94009000  1.0
  N  N526  1  0.08706000  0.34040000  0.59224000  1.0
  N  N527  1  0.71999000  0.68530000  0.57805000  1.0
  N  N528  1  0.72517000  0.47310000  0.22799000  1.0
  N  N529  1  0.87397000  0.50990000  0.52659000  1.0
  N  N530  1  0.78919000  0.54910000  0.43495000  1.0
  N  N531  1  0.87815000  0.46240000  0.44082000  1.0
  N  N532  1  0.06076000  0.88540000  0.08794000  1.0
  N  N533  1  0.70369000  0.53108000  0.08269000  1.0
  N  N534  1  0.70029000  0.75010000  0.72850000  1.0
  N  N535  1  0.85182000  0.71080000  0.02706000  1.0
  N  N536  1  0.76134000  0.67717000  0.93664000  1.0
  N  N537  1  0.84667000  0.76830000  0.94009000  1.0
  N  N538  1  0.58706000  0.84040000  0.59224000  1.0
  N  N539  1  0.21999000  0.18530000  0.57805000  1.0
  N  N540  1  0.22517000  0.97310000  0.22799000  1.0
  N  N541  1  0.37397000  0.00990000  0.52659000  1.0
  N  N542  1  0.28919000  0.04910000  0.43495000  1.0
  N  N543  1  0.37815000  0.96240000  0.44082000  1.0
  N  N544  1  0.56076000  0.61460000  0.58794000  1.0
  N  N545  1  0.20369000  0.96892000  0.58269000  1.0
  N  N546  1  0.20029000  0.74990000  0.22850000  1.0
  N  N547  1  0.35182000  0.78920000  0.52706000  1.0
  N  N548  1  0.26134000  0.82283000  0.43664000  1.0
  N  N549  1  0.34667000  0.73170000  0.44009000  1.0
  N  N550  1  0.08706000  0.65960000  0.09224000  1.0
  N  N551  1  0.71999000  0.31470000  0.07805000  1.0
  N  N552  1  0.72517000  0.52690000  0.72799000  1.0
  N  N553  1  0.87397000  0.49010000  0.02659000  1.0
  N  N554  1  0.78919000  0.45090000  0.93495000  1.0
  N  N555  1  0.87815000  0.53760000  0.94082000  1.0
  N  N556  1  0.06076000  0.11460000  0.58794000  1.0
  N  N557  1  0.70369000  0.46892000  0.58269000  1.0
  N  N558  1  0.70029000  0.24990000  0.22850000  1.0
  N  N559  1  0.85182000  0.28920000  0.52706000  1.0
  N  N560  1  0.76134000  0.32283000  0.43664000  1.0
  N  N561  1  0.84667000  0.23170000  0.44009000  1.0
  N  N562  1  0.58706000  0.15960000  0.09224000  1.0
  N  N563  1  0.21999000  0.81470000  0.07805000  1.0
  N  N564  1  0.22517000  0.02690000  0.72799000  1.0
  N  N565  1  0.37397000  0.99010000  0.02659000  1.0
  N  N566  1  0.28919000  0.95090000  0.93495000  1.0
  N  N567  1  0.37815000  0.03760000  0.94082000  1.0
  N  N568  1  0.43924000  0.61460000  0.91206000  1.0
  N  N569  1  0.79631000  0.96892000  0.91731000  1.0
  N  N570  1  0.79971000  0.74990000  0.27150000  1.0
  N  N571  1  0.64818000  0.78920000  0.97294000  1.0
  N  N572  1  0.73866000  0.82283000  0.06336000  1.0
  N  N573  1  0.65333000  0.73170000  0.05991000  1.0
  N  N574  1  0.91294000  0.65960000  0.40776000  1.0
  N  N575  1  0.28001000  0.31470000  0.42195000  1.0
  N  N576  1  0.27483000  0.52690000  0.77201000  1.0
  N  N577  1  0.12603000  0.49010000  0.47341000  1.0
  N  N578  1  0.21081000  0.45090000  0.56505000  1.0
  N  N579  1  0.12185000  0.53760000  0.55918000  1.0
  N  N580  1  0.93924000  0.11460000  0.91206000  1.0
  N  N581  1  0.29631000  0.46892000  0.91731000  1.0
  N  N582  1  0.29971000  0.24990000  0.27150000  1.0
  N  N583  1  0.14818000  0.28920000  0.97294000  1.0
  N  N584  1  0.23866000  0.32283000  0.06336000  1.0
  N  N585  1  0.15333000  0.23170000  0.05991000  1.0
  N  N586  1  0.41294000  0.15960000  0.40776000  1.0
  N  N587  1  0.78001000  0.81470000  0.42195000  1.0
  N  N588  1  0.77483000  0.02690000  0.77201000  1.0
  N  N589  1  0.62603000  0.99010000  0.47341000  1.0
  N  N590  1  0.71081000  0.95090000  0.56505000  1.0
  N  N591  1  0.62185000  0.03760000  0.55918000  1.0
