# generated using pymatgen
data_ZnH9C11NO5
_symmetry_space_group_name_H-M   'P 1'
_cell_length_a   8.79940000
_cell_length_b   8.80390000
_cell_length_c   53.88800000
_cell_angle_alpha   90.00000000
_cell_angle_beta   90.00000000
_cell_angle_gamma   90.11100000
_symmetry_Int_Tables_number   1
_chemical_formula_structural   ZnH9C11NO5
_chemical_formula_sum   'Zn8 H72 C88 N8 O40'
_cell_volume   4174.64366729
_cell_formula_units_Z   8
loop_
 _symmetry_equiv_pos_site_id
 _symmetry_equiv_pos_as_xyz
  1  'x, y, z'
loop_
 _atom_site_type_symbol
 _atom_site_label
 _atom_site_symmetry_multiplicity
 _atom_site_fract_x
 _atom_site_fract_y
 _atom_site_fract_z
 _atom_site_occupancy
  Zn  Zn0  1  0.73435000  0.82303000  0.74649000  1.0
  Zn  Zn1  1  0.77244000  0.78812000  0.80212000  1.0
  Zn  Zn2  1  0.43161000  0.66286000  0.54848000  1.0
  Zn  Zn3  1  0.60378000  0.37088000  0.99407000  1.0
  Zn  Zn4  1  0.26565000  0.17697000  0.24649000  1.0
  Zn  Zn5  1  0.22756000  0.21188000  0.30212000  1.0
  Zn  Zn6  1  0.56839000  0.33714000  0.04848000  1.0
  Zn  Zn7  1  0.39622000  0.62912000  0.49407000  1.0
  H  H8  1  0.87300000  0.06190000  0.70690000  1.0
  H  H9  1  0.72290000  0.10200000  0.72100000  1.0
  H  H10  1  0.65160000  0.28240000  0.69150000  1.0
  H  H11  1  0.82800000  0.30910000  0.69360000  1.0
  H  H12  1  0.86890000  0.15290000  0.65970000  1.0
  H  H13  1  0.66890000  0.05610000  0.63580000  1.0
  H  H14  1  0.54420000  0.58820000  0.67090000  1.0
  H  H15  1  0.61270000  0.61890000  0.71170000  1.0
  H  H16  1  0.61500000  0.53560000  0.58970000  1.0
  H  H17  1  0.68100000  0.58710000  0.62990000  1.0
  H  H18  1  0.39930000  0.94530000  0.62820000  1.0
  H  H19  1  0.35070000  0.89170000  0.58740000  1.0
  H  H20  1  0.77010000  0.31720000  0.63370000  1.0
  H  H21  1  0.49500000  0.22530000  0.64610000  1.0
  H  H22  1  0.99700000  0.92920000  0.85060000  1.0
  H  H23  1  0.02250000  0.81440000  0.82870000  1.0
  H  H24  1  0.19290000  0.65800000  0.85540000  1.0
  H  H25  1  0.25710000  0.82590000  0.85570000  1.0
  H  H26  1  0.09490000  0.87600000  0.89220000  1.0
  H  H27  1  0.99110000  0.64720000  0.91120000  1.0
  H  H28  1  0.52960000  0.55600000  0.87450000  1.0
  H  H29  1  0.58080000  0.61780000  0.83270000  1.0
  H  H30  1  0.53010000  0.62050000  0.96070000  1.0
  H  H31  1  0.51380000  0.66380000  0.91710000  1.0
  H  H32  1  0.85980000  0.36540000  0.91160000  1.0
  H  H33  1  0.76620000  0.25870000  0.94850000  1.0
  H  H34  1  0.25550000  0.73570000  0.91440000  1.0
  H  H35  1  0.13710000  0.46520000  0.89560000  1.0
  H  H36  1  0.25970000  0.79090000  0.79770000  1.0
  H  H37  1  0.24220000  0.81360000  0.74670000  1.0
  H  H38  1  0.73850000  0.29800000  0.80190000  1.0
  H  H39  1  0.76530000  0.30990000  0.75080000  1.0
  H  H40  1  0.91470000  0.64610000  0.54630000  1.0
  H  H41  1  0.91230000  0.63310000  0.49620000  1.0
  H  H42  1  0.41810000  0.14350000  0.49630000  1.0
  H  H43  1  0.41850000  0.14760000  0.54710000  1.0
  H  H44  1  0.12700000  0.93810000  0.20690000  1.0
  H  H45  1  0.27710000  0.89800000  0.22100000  1.0
  H  H46  1  0.34840000  0.71760000  0.19150000  1.0
  H  H47  1  0.17200000  0.69090000  0.19360000  1.0
  H  H48  1  0.13110000  0.84710000  0.15970000  1.0
  H  H49  1  0.33110000  0.94390000  0.13580000  1.0
  H  H50  1  0.45580000  0.41180000  0.17090000  1.0
  H  H51  1  0.38730000  0.38110000  0.21170000  1.0
  H  H52  1  0.38500000  0.46440000  0.08970000  1.0
  H  H53  1  0.31900000  0.41290000  0.12990000  1.0
  H  H54  1  0.60070000  0.05470000  0.12820000  1.0
  H  H55  1  0.64930000  0.10830000  0.08740000  1.0
  H  H56  1  0.22990000  0.68280000  0.13370000  1.0
  H  H57  1  0.50500000  0.77470000  0.14610000  1.0
  H  H58  1  0.00300000  0.07080000  0.35060000  1.0
  H  H59  1  0.97750000  0.18560000  0.32870000  1.0
  H  H60  1  0.80710000  0.34200000  0.35540000  1.0
  H  H61  1  0.74290000  0.17410000  0.35570000  1.0
  H  H62  1  0.90510000  0.12400000  0.39220000  1.0
  H  H63  1  0.00890000  0.35280000  0.41120000  1.0
  H  H64  1  0.47040000  0.44400000  0.37450000  1.0
  H  H65  1  0.41920000  0.38220000  0.33270000  1.0
  H  H66  1  0.46990000  0.37950000  0.46070000  1.0
  H  H67  1  0.48620000  0.33620000  0.41710000  1.0
  H  H68  1  0.14020000  0.63460000  0.41160000  1.0
  H  H69  1  0.23380000  0.74130000  0.44850000  1.0
  H  H70  1  0.74450000  0.26430000  0.41440000  1.0
  H  H71  1  0.86290000  0.53480000  0.39560000  1.0
  H  H72  1  0.74030000  0.20910000  0.29770000  1.0
  H  H73  1  0.75780000  0.18640000  0.24670000  1.0
  H  H74  1  0.26150000  0.70200000  0.30190000  1.0
  H  H75  1  0.23470000  0.69010000  0.25080000  1.0
  H  H76  1  0.08530000  0.35390000  0.04630000  1.0
  H  H77  1  0.08770000  0.36690000  0.99620000  1.0
  H  H78  1  0.58190000  0.85650000  0.99630000  1.0
  H  H79  1  0.58150000  0.85240000  0.04710000  1.0
  C  C80  1  0.69150000  0.95250000  0.69368000  1.0
  C  C81  1  0.76600000  0.08450000  0.70472000  1.0
  C  C82  1  0.75040000  0.23680000  0.68872000  1.0
  C  C83  1  0.76820000  0.19780000  0.66214000  1.0
  C  C84  1  0.64730000  0.08410000  0.65307000  1.0
  C  C85  1  0.64520000  0.94170000  0.66902000  1.0
  C  C86  1  0.58910000  0.80450000  0.65994000  1.0
  C  C87  1  0.58020000  0.68170000  0.67638000  1.0
  C  C88  1  0.62500000  0.69960000  0.70071000  1.0
  C  C89  1  0.57250000  0.61950000  0.59751000  1.0
  C  C90  1  0.61200000  0.64920000  0.62168000  1.0
  C  C91  1  0.54680000  0.77520000  0.63396000  1.0
  C  C92  1  0.44640000  0.86280000  0.62069000  1.0
  C  C93  1  0.41550000  0.82800000  0.59624000  1.0
  C  C94  1  0.88740000  0.73410000  0.85506000  1.0
  C  C95  1  0.01330000  0.82300000  0.84650000  1.0
  C  C96  1  0.17090000  0.76220000  0.86000000  1.0
  C  C97  1  0.13150000  0.77530000  0.88730000  1.0
  C  C98  1  0.01710000  0.64170000  0.89360000  1.0
  C  C99  1  0.87370000  0.67270000  0.87847000  1.0
  C  C100  1  0.74400000  0.60040000  0.88584000  1.0
  C  C101  1  0.62420000  0.59250000  0.86950000  1.0
  C  C102  1  0.65070000  0.64200000  0.84500000  1.0
  C  C103  1  0.58100000  0.55790000  0.94960000  1.0
  C  C104  1  0.58630000  0.60210000  0.92460000  1.0
  C  C105  1  0.71700000  0.54120000  0.91170000  1.0
  C  C106  1  0.78330000  0.41360000  0.92057000  1.0
  C  C107  1  0.73420000  0.35480000  0.94363000  1.0
  C  C108  1  0.46100000  0.80190000  0.77840000  1.0
  C  C109  1  0.29870000  0.79910000  0.78180000  1.0
  C  C110  1  0.20230000  0.80810000  0.76263000  1.0
  C  C111  1  0.03650000  0.80960000  0.76560000  1.0
  C  C112  1  0.75540000  0.08820000  0.78397000  1.0
  C  C113  1  0.74880000  0.25610000  0.78617000  1.0
  C  C114  1  0.75680000  0.35080000  0.76670000  1.0
  C  C115  1  0.75270000  0.51460000  0.76951000  1.0
  C  C116  1  0.13340000  0.64180000  0.52795000  1.0
  C  C117  1  0.95710000  0.64300000  0.53051000  1.0
  C  C118  1  0.86940000  0.63990000  0.51189000  1.0
  C  C119  1  0.70170000  0.64650000  0.51393000  1.0
  C  C120  1  0.40340000  0.93050000  0.51426000  1.0
  C  C121  1  0.41350000  0.10060000  0.51209000  1.0
  C  C122  1  0.41600000  0.19050000  0.53136000  1.0
  C  C123  1  0.41510000  0.35760000  0.52906000  1.0
  C  C124  1  0.30850000  0.04750000  0.19368000  1.0
  C  C125  1  0.23400000  0.91550000  0.20472000  1.0
  C  C126  1  0.24960000  0.76320000  0.18872000  1.0
  C  C127  1  0.23180000  0.80220000  0.16214000  1.0
  C  C128  1  0.35270000  0.91590000  0.15307000  1.0
  C  C129  1  0.35480000  0.05830000  0.16902000  1.0
  C  C130  1  0.41090000  0.19550000  0.15994000  1.0
  C  C131  1  0.41980000  0.31830000  0.17638000  1.0
  C  C132  1  0.37500000  0.30040000  0.20071000  1.0
  C  C133  1  0.42750000  0.38050000  0.09751000  1.0
  C  C134  1  0.38800000  0.35080000  0.12168000  1.0
  C  C135  1  0.45320000  0.22480000  0.13396000  1.0
  C  C136  1  0.55360000  0.13720000  0.12069000  1.0
  C  C137  1  0.58450000  0.17200000  0.09624000  1.0
  C  C138  1  0.11260000  0.26590000  0.35506000  1.0
  C  C139  1  0.98670000  0.17700000  0.34650000  1.0
  C  C140  1  0.82910000  0.23780000  0.36000000  1.0
  C  C141  1  0.86850000  0.22470000  0.38730000  1.0
  C  C142  1  0.98290000  0.35830000  0.39360000  1.0
  C  C143  1  0.12630000  0.32730000  0.37847000  1.0
  C  C144  1  0.25600000  0.39960000  0.38584000  1.0
  C  C145  1  0.37580000  0.40750000  0.36950000  1.0
  C  C146  1  0.34930000  0.35800000  0.34500000  1.0
  C  C147  1  0.41900000  0.44210000  0.44960000  1.0
  C  C148  1  0.41370000  0.39790000  0.42460000  1.0
  C  C149  1  0.28300000  0.45880000  0.41170000  1.0
  C  C150  1  0.21670000  0.58640000  0.42057000  1.0
  C  C151  1  0.26580000  0.64520000  0.44363000  1.0
  C  C152  1  0.53900000  0.19810000  0.27840000  1.0
  C  C153  1  0.70130000  0.20090000  0.28180000  1.0
  C  C154  1  0.79770000  0.19190000  0.26263000  1.0
  C  C155  1  0.96350000  0.19040000  0.26560000  1.0
  C  C156  1  0.24460000  0.91180000  0.28397000  1.0
  C  C157  1  0.25120000  0.74390000  0.28617000  1.0
  C  C158  1  0.24320000  0.64920000  0.26670000  1.0
  C  C159  1  0.24730000  0.48540000  0.26951000  1.0
  C  C160  1  0.86660000  0.35820000  0.02795000  1.0
  C  C161  1  0.04290000  0.35700000  0.03051000  1.0
  C  C162  1  0.13060000  0.36010000  0.01189000  1.0
  C  C163  1  0.29830000  0.35350000  0.01393000  1.0
  C  C164  1  0.59660000  0.06950000  0.01426000  1.0
  C  C165  1  0.58650000  0.89940000  0.01209000  1.0
  C  C166  1  0.58400000  0.80950000  0.03136000  1.0
  C  C167  1  0.58490000  0.64240000  0.02906000  1.0
  N  N168  1  0.68580000  0.82930000  0.70912000  1.0
  N  N169  1  0.47390000  0.70770000  0.58456000  1.0
  N  N170  1  0.77280000  0.72270000  0.83916000  1.0
  N  N171  1  0.64430000  0.43280000  0.95835000  1.0
  N  N172  1  0.31420000  0.17070000  0.20912000  1.0
  N  N173  1  0.52610000  0.29230000  0.08456000  1.0
  N  N174  1  0.22720000  0.27730000  0.33916000  1.0
  N  N175  1  0.35570000  0.56720000  0.45835000  1.0
  O  O176  1  0.76050000  0.33540000  0.64851000  1.0
  O  O177  1  0.49870000  0.14780000  0.65457000  1.0
  O  O178  1  0.26720000  0.73130000  0.89930000  1.0
  O  O179  1  0.06020000  0.48740000  0.88780000  1.0
  O  O180  1  0.51760000  0.79300000  0.75636000  1.0
  O  O181  1  0.53910000  0.80700000  0.79806000  1.0
  O  O182  1  0.95800000  0.84300000  0.74582000  1.0
  O  O183  1  0.97730000  0.78700000  0.78629000  1.0
  O  O184  1  0.72410000  0.03130000  0.76339000  1.0
  O  O185  1  0.77920000  0.01550000  0.80374000  1.0
  O  O186  1  0.75730000  0.59240000  0.75027000  1.0
  O  O187  1  0.75290000  0.56890000  0.79053000  1.0
  O  O188  1  0.20320000  0.65260000  0.54702000  1.0
  O  O189  1  0.18050000  0.63590000  0.50674000  1.0
  O  O190  1  0.64810000  0.65310000  0.53526000  1.0
  O  O191  1  0.62620000  0.64060000  0.49452000  1.0
  O  O192  1  0.41820000  0.87710000  0.53522000  1.0
  O  O193  1  0.39700000  0.85840000  0.49462000  1.0
  O  O194  1  0.43520000  0.43330000  0.54888000  1.0
  O  O195  1  0.41100000  0.41580000  0.50730000  1.0
  O  O196  1  0.23950000  0.66460000  0.14851000  1.0
  O  O197  1  0.50130000  0.85220000  0.15457000  1.0
  O  O198  1  0.73280000  0.26870000  0.39930000  1.0
  O  O199  1  0.93980000  0.51260000  0.38780000  1.0
  O  O200  1  0.48240000  0.20700000  0.25636000  1.0
  O  O201  1  0.46090000  0.19300000  0.29806000  1.0
  O  O202  1  0.04200000  0.15700000  0.24582000  1.0
  O  O203  1  0.02270000  0.21300000  0.28629000  1.0
  O  O204  1  0.27590000  0.96870000  0.26339000  1.0
  O  O205  1  0.22080000  0.98450000  0.30374000  1.0
  O  O206  1  0.24270000  0.40760000  0.25027000  1.0
  O  O207  1  0.24710000  0.43110000  0.29053000  1.0
  O  O208  1  0.79680000  0.34740000  0.04702000  1.0
  O  O209  1  0.81950000  0.36410000  0.00674000  1.0
  O  O210  1  0.35190000  0.34690000  0.03526000  1.0
  O  O211  1  0.37380000  0.35940000  0.99452000  1.0
  O  O212  1  0.58180000  0.12290000  0.03522000  1.0
  O  O213  1  0.60300000  0.14160000  0.99462000  1.0
  O  O214  1  0.56480000  0.56670000  0.04888000  1.0
  O  O215  1  0.58900000  0.58420000  0.00730000  1.0
