# generated using pymatgen
data_Zn2H10C18N5O8
_symmetry_space_group_name_H-M   'P 1'
_cell_length_a   18.82260000
_cell_length_b   18.64270000
_cell_length_c   14.24850000
_cell_angle_alpha   90.00000000
_cell_angle_beta   130.17500000
_cell_angle_gamma   90.00000000
_symmetry_Int_Tables_number   1
_chemical_formula_structural   Zn2H10C18N5O8
_chemical_formula_sum   'Zn8 H40 C72 N20 O32'
_cell_volume   3820.27857624
_cell_formula_units_Z   4
loop_
 _symmetry_equiv_pos_site_id
 _symmetry_equiv_pos_as_xyz
  1  'x, y, z'
loop_
 _atom_site_type_symbol
 _atom_site_label
 _atom_site_symmetry_multiplicity
 _atom_site_fract_x
 _atom_site_fract_y
 _atom_site_fract_z
 _atom_site_occupancy
  Zn  Zn0  1  0.52995000  0.50000000  0.12682000  1.0
  Zn  Zn1  1  0.02995000  0.00000000  0.12682000  1.0
  Zn  Zn2  1  0.47005000  0.50000000  0.87318000  1.0
  Zn  Zn3  1  0.97005000  0.00000000  0.87318000  1.0
  Zn  Zn4  1  0.00000000  0.09694000  0.50000000  1.0
  Zn  Zn5  1  0.50000000  0.59694000  0.50000000  1.0
  Zn  Zn6  1  0.00000000  0.90306000  0.50000000  1.0
  Zn  Zn7  1  0.50000000  0.40306000  0.50000000  1.0
  H  H8  1  0.65250000  0.33980000  0.95190000  1.0
  H  H9  1  0.84130000  0.19210000  0.17870000  1.0
  H  H10  1  0.73620000  0.31840000  0.28970000  1.0
  H  H11  1  0.53560000  0.33990000  0.34140000  1.0
  H  H12  1  0.54440000  0.36470000  0.24990000  1.0
  H  H13  1  0.15250000  0.83980000  0.95190000  1.0
  H  H14  1  0.34130000  0.69210000  0.17870000  1.0
  H  H15  1  0.23620000  0.81840000  0.28970000  1.0
  H  H16  1  0.03560000  0.83990000  0.34140000  1.0
  H  H17  1  0.04440000  0.86470000  0.24990000  1.0
  H  H18  1  0.34750000  0.33980000  0.04810000  1.0
  H  H19  1  0.15870000  0.19210000  0.82130000  1.0
  H  H20  1  0.26380000  0.31840000  0.71030000  1.0
  H  H21  1  0.46440000  0.33990000  0.65860000  1.0
  H  H22  1  0.45560000  0.36470000  0.75010000  1.0
  H  H23  1  0.84750000  0.83980000  0.04810000  1.0
  H  H24  1  0.65870000  0.69210000  0.82130000  1.0
  H  H25  1  0.76380000  0.81840000  0.71030000  1.0
  H  H26  1  0.96440000  0.83990000  0.65860000  1.0
  H  H27  1  0.95560000  0.86470000  0.75010000  1.0
  H  H28  1  0.34750000  0.66020000  0.04810000  1.0
  H  H29  1  0.15870000  0.80790000  0.82130000  1.0
  H  H30  1  0.26380000  0.68160000  0.71030000  1.0
  H  H31  1  0.46440000  0.66010000  0.65860000  1.0
  H  H32  1  0.45560000  0.63530000  0.75010000  1.0
  H  H33  1  0.84750000  0.16020000  0.04810000  1.0
  H  H34  1  0.65870000  0.30790000  0.82130000  1.0
  H  H35  1  0.76380000  0.18160000  0.71030000  1.0
  H  H36  1  0.96440000  0.16010000  0.65860000  1.0
  H  H37  1  0.95560000  0.13530000  0.75010000  1.0
  H  H38  1  0.65250000  0.66020000  0.95190000  1.0
  H  H39  1  0.84130000  0.80790000  0.17870000  1.0
  H  H40  1  0.73620000  0.68160000  0.28970000  1.0
  H  H41  1  0.53560000  0.66010000  0.34140000  1.0
  H  H42  1  0.54440000  0.63530000  0.24990000  1.0
  H  H43  1  0.15250000  0.16020000  0.95190000  1.0
  H  H44  1  0.34130000  0.30790000  0.17870000  1.0
  H  H45  1  0.23620000  0.18160000  0.28970000  1.0
  H  H46  1  0.03560000  0.16010000  0.34140000  1.0
  H  H47  1  0.04440000  0.13530000  0.24990000  1.0
  C  C48  1  0.68590000  0.33870000  0.11750000  1.0
  C  C49  1  0.68970000  0.31690000  0.02770000  1.0
  C  C50  1  0.74790000  0.26130000  0.04860000  1.0
  C  C51  1  0.80070000  0.22850000  0.16180000  1.0
  C  C52  1  0.79590000  0.24720000  0.25110000  1.0
  C  C53  1  0.73870000  0.30400000  0.22940000  1.0
  C  C54  1  0.62190000  0.39920000  0.08780000  1.0
  C  C55  1  0.85600000  0.20670000  0.37150000  1.0
  C  C56  1  0.53580000  0.44270000  0.33060000  1.0
  C  C57  1  0.18590000  0.83870000  0.11750000  1.0
  C  C58  1  0.18970000  0.81690000  0.02770000  1.0
  C  C59  1  0.24790000  0.76130000  0.04860000  1.0
  C  C60  1  0.30070000  0.72850000  0.16180000  1.0
  C  C61  1  0.29590000  0.74720000  0.25110000  1.0
  C  C62  1  0.23870000  0.80400000  0.22940000  1.0
  C  C63  1  0.12190000  0.89920000  0.08780000  1.0
  C  C64  1  0.35600000  0.70670000  0.37150000  1.0
  C  C65  1  0.03580000  0.94270000  0.33060000  1.0
  C  C66  1  0.31410000  0.33870000  0.88250000  1.0
  C  C67  1  0.31030000  0.31690000  0.97230000  1.0
  C  C68  1  0.25210000  0.26130000  0.95140000  1.0
  C  C69  1  0.19930000  0.22850000  0.83820000  1.0
  C  C70  1  0.20410000  0.24720000  0.74890000  1.0
  C  C71  1  0.26130000  0.30400000  0.77060000  1.0
  C  C72  1  0.37810000  0.39920000  0.91220000  1.0
  C  C73  1  0.14400000  0.20670000  0.62850000  1.0
  C  C74  1  0.46420000  0.44270000  0.66940000  1.0
  C  C75  1  0.81410000  0.83870000  0.88250000  1.0
  C  C76  1  0.81030000  0.81690000  0.97230000  1.0
  C  C77  1  0.75210000  0.76130000  0.95140000  1.0
  C  C78  1  0.69930000  0.72850000  0.83820000  1.0
  C  C79  1  0.70410000  0.74720000  0.74890000  1.0
  C  C80  1  0.76130000  0.80400000  0.77060000  1.0
  C  C81  1  0.87810000  0.89920000  0.91220000  1.0
  C  C82  1  0.64400000  0.70670000  0.62850000  1.0
  C  C83  1  0.96420000  0.94270000  0.66940000  1.0
  C  C84  1  0.31410000  0.66130000  0.88250000  1.0
  C  C85  1  0.31030000  0.68310000  0.97230000  1.0
  C  C86  1  0.25210000  0.73870000  0.95140000  1.0
  C  C87  1  0.19930000  0.77150000  0.83820000  1.0
  C  C88  1  0.20410000  0.75280000  0.74890000  1.0
  C  C89  1  0.26130000  0.69600000  0.77060000  1.0
  C  C90  1  0.37810000  0.60080000  0.91220000  1.0
  C  C91  1  0.14400000  0.79330000  0.62850000  1.0
  C  C92  1  0.46420000  0.55730000  0.66940000  1.0
  C  C93  1  0.81410000  0.16130000  0.88250000  1.0
  C  C94  1  0.81030000  0.18310000  0.97230000  1.0
  C  C95  1  0.75210000  0.23870000  0.95140000  1.0
  C  C96  1  0.69930000  0.27150000  0.83820000  1.0
  C  C97  1  0.70410000  0.25280000  0.74890000  1.0
  C  C98  1  0.76130000  0.19600000  0.77060000  1.0
  C  C99  1  0.87810000  0.10080000  0.91220000  1.0
  C  C100  1  0.64400000  0.29330000  0.62850000  1.0
  C  C101  1  0.96420000  0.05730000  0.66940000  1.0
  C  C102  1  0.68590000  0.66130000  0.11750000  1.0
  C  C103  1  0.68970000  0.68310000  0.02770000  1.0
  C  C104  1  0.74790000  0.73870000  0.04860000  1.0
  C  C105  1  0.80070000  0.77150000  0.16180000  1.0
  C  C106  1  0.79590000  0.75280000  0.25110000  1.0
  C  C107  1  0.73870000  0.69600000  0.22940000  1.0
  C  C108  1  0.62190000  0.60080000  0.08780000  1.0
  C  C109  1  0.85600000  0.79330000  0.37150000  1.0
  C  C110  1  0.53580000  0.55730000  0.33060000  1.0
  C  C111  1  0.18590000  0.16130000  0.11750000  1.0
  C  C112  1  0.18970000  0.18310000  0.02770000  1.0
  C  C113  1  0.24790000  0.23870000  0.04860000  1.0
  C  C114  1  0.30070000  0.27150000  0.16180000  1.0
  C  C115  1  0.29590000  0.25280000  0.25110000  1.0
  C  C116  1  0.23870000  0.19600000  0.22940000  1.0
  C  C117  1  0.12190000  0.10080000  0.08780000  1.0
  C  C118  1  0.35600000  0.29330000  0.37150000  1.0
  C  C119  1  0.03580000  0.05730000  0.33060000  1.0
  N  N120  1  0.52770000  0.46210000  0.41250000  1.0
  N  N121  1  0.53900000  0.37420000  0.30420000  1.0
  N  N122  1  0.02770000  0.96210000  0.41250000  1.0
  N  N123  1  0.03900000  0.87420000  0.30420000  1.0
  N  N124  1  0.47230000  0.46210000  0.58750000  1.0
  N  N125  1  0.46100000  0.37420000  0.69580000  1.0
  N  N126  1  0.97230000  0.96210000  0.58750000  1.0
  N  N127  1  0.96100000  0.87420000  0.69580000  1.0
  N  N128  1  0.47230000  0.53790000  0.58750000  1.0
  N  N129  1  0.46100000  0.62580000  0.69580000  1.0
  N  N130  1  0.97230000  0.03790000  0.58750000  1.0
  N  N131  1  0.96100000  0.12580000  0.69580000  1.0
  N  N132  1  0.52770000  0.53790000  0.41250000  1.0
  N  N133  1  0.53900000  0.62580000  0.30420000  1.0
  N  N134  1  0.02770000  0.03790000  0.41250000  1.0
  N  N135  1  0.03900000  0.12580000  0.30420000  1.0
  N  N136  1  0.53980000  0.50000000  0.27570000  1.0
  N  N137  1  0.03980000  0.00000000  0.27570000  1.0
  N  N138  1  0.46020000  0.50000000  0.72430000  1.0
  N  N139  1  0.96020000  0.00000000  0.72430000  1.0
  O  O140  1  0.62100000  0.42050000  0.17030000  1.0
  O  O141  1  0.57360000  0.42430000  0.98220000  1.0
  O  O142  1  0.85600000  0.22050000  0.45520000  1.0
  O  O143  1  0.90040000  0.15660000  0.37330000  1.0
  O  O144  1  0.12100000  0.92050000  0.17030000  1.0
  O  O145  1  0.07360000  0.92430000  0.98220000  1.0
  O  O146  1  0.35600000  0.72050000  0.45520000  1.0
  O  O147  1  0.40040000  0.65660000  0.37330000  1.0
  O  O148  1  0.37900000  0.42050000  0.82970000  1.0
  O  O149  1  0.42640000  0.42430000  0.01780000  1.0
  O  O150  1  0.14400000  0.22050000  0.54480000  1.0
  O  O151  1  0.09960000  0.15660000  0.62670000  1.0
  O  O152  1  0.87900000  0.92050000  0.82970000  1.0
  O  O153  1  0.92640000  0.92430000  0.01780000  1.0
  O  O154  1  0.64400000  0.72050000  0.54480000  1.0
  O  O155  1  0.59960000  0.65660000  0.62670000  1.0
  O  O156  1  0.37900000  0.57950000  0.82970000  1.0
  O  O157  1  0.42640000  0.57570000  0.01780000  1.0
  O  O158  1  0.14400000  0.77950000  0.54480000  1.0
  O  O159  1  0.09960000  0.84340000  0.62670000  1.0
  O  O160  1  0.87900000  0.07950000  0.82970000  1.0
  O  O161  1  0.92640000  0.07570000  0.01780000  1.0
  O  O162  1  0.64400000  0.27950000  0.54480000  1.0
  O  O163  1  0.59960000  0.34340000  0.62670000  1.0
  O  O164  1  0.62100000  0.57950000  0.17030000  1.0
  O  O165  1  0.57360000  0.57570000  0.98220000  1.0
  O  O166  1  0.85600000  0.77950000  0.45520000  1.0
  O  O167  1  0.90040000  0.84340000  0.37330000  1.0
  O  O168  1  0.12100000  0.07950000  0.17030000  1.0
  O  O169  1  0.07360000  0.07570000  0.98220000  1.0
  O  O170  1  0.35600000  0.27950000  0.45520000  1.0
  O  O171  1  0.40040000  0.34340000  0.37330000  1.0
