# generated using pymatgen
data_Zr3H14(C3O2)8
_symmetry_space_group_name_H-M   'P 1'
_cell_length_a   20.74650000
_cell_length_b   20.74650000
_cell_length_c   20.74650000
_cell_angle_alpha   90.00000000
_cell_angle_beta   90.00000000
_cell_angle_gamma   90.00000000
_symmetry_Int_Tables_number   1
_chemical_formula_structural   Zr3H14(C3O2)8
_chemical_formula_sum   'Zr24 H112 C192 O128'
_cell_volume   8929.65173127
_cell_formula_units_Z   8
loop_
 _symmetry_equiv_pos_site_id
 _symmetry_equiv_pos_as_xyz
  1  'x, y, z'
loop_
 _atom_site_type_symbol
 _atom_site_label
 _atom_site_symmetry_multiplicity
 _atom_site_fract_x
 _atom_site_fract_y
 _atom_site_fract_z
 _atom_site_occupancy
  Zr  Zr0  1  0.00000000  0.11466000  0.00000000  1.0
  Zr  Zr1  1  0.11466000  0.00000000  0.00000000  1.0
  Zr  Zr2  1  0.88534000  0.00000000  0.00000000  1.0
  Zr  Zr3  1  0.00000000  0.00000000  0.11466000  1.0
  Zr  Zr4  1  0.00000000  0.00000000  0.88534000  1.0
  Zr  Zr5  1  0.00000000  0.88534000  0.00000000  1.0
  Zr  Zr6  1  0.50000000  0.61466000  0.00000000  1.0
  Zr  Zr7  1  0.61466000  0.50000000  0.00000000  1.0
  Zr  Zr8  1  0.38534000  0.50000000  0.00000000  1.0
  Zr  Zr9  1  0.50000000  0.50000000  0.11466000  1.0
  Zr  Zr10  1  0.50000000  0.50000000  0.88534000  1.0
  Zr  Zr11  1  0.50000000  0.38534000  0.00000000  1.0
  Zr  Zr12  1  0.00000000  0.61466000  0.50000000  1.0
  Zr  Zr13  1  0.11466000  0.50000000  0.50000000  1.0
  Zr  Zr14  1  0.88534000  0.50000000  0.50000000  1.0
  Zr  Zr15  1  0.00000000  0.50000000  0.61466000  1.0
  Zr  Zr16  1  0.00000000  0.50000000  0.38534000  1.0
  Zr  Zr17  1  0.00000000  0.38534000  0.50000000  1.0
  Zr  Zr18  1  0.50000000  0.11466000  0.50000000  1.0
  Zr  Zr19  1  0.61466000  0.00000000  0.50000000  1.0
  Zr  Zr20  1  0.38534000  0.00000000  0.50000000  1.0
  Zr  Zr21  1  0.50000000  0.00000000  0.61466000  1.0
  Zr  Zr22  1  0.50000000  0.00000000  0.38534000  1.0
  Zr  Zr23  1  0.50000000  0.88534000  0.50000000  1.0
  H  H24  1  0.08570000  0.08570000  0.08570000  1.0
  H  H25  1  0.91430000  0.08570000  0.91430000  1.0
  H  H26  1  0.91430000  0.91430000  0.08570000  1.0
  H  H27  1  0.08570000  0.91430000  0.91430000  1.0
  H  H28  1  0.58570000  0.58570000  0.08570000  1.0
  H  H29  1  0.41430000  0.58570000  0.91430000  1.0
  H  H30  1  0.41430000  0.41430000  0.08570000  1.0
  H  H31  1  0.58570000  0.41430000  0.91430000  1.0
  H  H32  1  0.08570000  0.58570000  0.58570000  1.0
  H  H33  1  0.91430000  0.58570000  0.41430000  1.0
  H  H34  1  0.91430000  0.41430000  0.58570000  1.0
  H  H35  1  0.08570000  0.41430000  0.41430000  1.0
  H  H36  1  0.58570000  0.08570000  0.58570000  1.0
  H  H37  1  0.41430000  0.08570000  0.41430000  1.0
  H  H38  1  0.41430000  0.91430000  0.58570000  1.0
  H  H39  1  0.58570000  0.91430000  0.41430000  1.0
  H  H40  1  0.28182000  0.13483000  0.99661000  1.0
  H  H41  1  0.13483000  0.28182000  0.99661000  1.0
  H  H42  1  0.21818000  0.36517000  0.99661000  1.0
  H  H43  1  0.36517000  0.21818000  0.99661000  1.0
  H  H44  1  0.28182000  0.63483000  0.49661000  1.0
  H  H45  1  0.13483000  0.78182000  0.49661000  1.0
  H  H46  1  0.21818000  0.86517000  0.49661000  1.0
  H  H47  1  0.36517000  0.71818000  0.49661000  1.0
  H  H48  1  0.86517000  0.71818000  0.99661000  1.0
  H  H49  1  0.71818000  0.86517000  0.99661000  1.0
  H  H50  1  0.63483000  0.78182000  0.99661000  1.0
  H  H51  1  0.78182000  0.63483000  0.99661000  1.0
  H  H52  1  0.86517000  0.21818000  0.49661000  1.0
  H  H53  1  0.71818000  0.36517000  0.49661000  1.0
  H  H54  1  0.63483000  0.28182000  0.49661000  1.0
  H  H55  1  0.78182000  0.13483000  0.49661000  1.0
  H  H56  1  0.86517000  0.28182000  0.00339000  1.0
  H  H57  1  0.71818000  0.13483000  0.00339000  1.0
  H  H58  1  0.63483000  0.21818000  0.00339000  1.0
  H  H59  1  0.78182000  0.36517000  0.00339000  1.0
  H  H60  1  0.86517000  0.78182000  0.50339000  1.0
  H  H61  1  0.71818000  0.63483000  0.50339000  1.0
  H  H62  1  0.63483000  0.71818000  0.50339000  1.0
  H  H63  1  0.78182000  0.86517000  0.50339000  1.0
  H  H64  1  0.13483000  0.21818000  0.50339000  1.0
  H  H65  1  0.28182000  0.36517000  0.50339000  1.0
  H  H66  1  0.36517000  0.28182000  0.50339000  1.0
  H  H67  1  0.21818000  0.13483000  0.50339000  1.0
  H  H68  1  0.13483000  0.71818000  0.00339000  1.0
  H  H69  1  0.28182000  0.86517000  0.00339000  1.0
  H  H70  1  0.36517000  0.78182000  0.00339000  1.0
  H  H71  1  0.21818000  0.63483000  0.00339000  1.0
  H  H72  1  0.99664000  0.28182000  0.13483000  1.0
  H  H73  1  0.99658000  0.13483000  0.28182000  1.0
  H  H74  1  0.99658000  0.21818000  0.36517000  1.0
  H  H75  1  0.99664000  0.36517000  0.21818000  1.0
  H  H76  1  0.49660000  0.36517000  0.71818000  1.0
  H  H77  1  0.49662000  0.21818000  0.86517000  1.0
  H  H78  1  0.49662000  0.13483000  0.78182000  1.0
  H  H79  1  0.49660000  0.28182000  0.63483000  1.0
  H  H80  1  0.99660000  0.86517000  0.71818000  1.0
  H  H81  1  0.99662000  0.71818000  0.86517000  1.0
  H  H82  1  0.99662000  0.63483000  0.78182000  1.0
  H  H83  1  0.99660000  0.78182000  0.63483000  1.0
  H  H84  1  0.49664000  0.78182000  0.13483000  1.0
  H  H85  1  0.49658000  0.63483000  0.28182000  1.0
  H  H86  1  0.49658000  0.71818000  0.36517000  1.0
  H  H87  1  0.49664000  0.86517000  0.21818000  1.0
  H  H88  1  0.00338000  0.86517000  0.28182000  1.0
  H  H89  1  0.00340000  0.71818000  0.13483000  1.0
  H  H90  1  0.00340000  0.63483000  0.21818000  1.0
  H  H91  1  0.00338000  0.78182000  0.36517000  1.0
  H  H92  1  0.50342000  0.78182000  0.86517000  1.0
  H  H93  1  0.50336000  0.63483000  0.71818000  1.0
  H  H94  1  0.50336000  0.71818000  0.63483000  1.0
  H  H95  1  0.50342000  0.86517000  0.78182000  1.0
  H  H96  1  0.50338000  0.36517000  0.28182000  1.0
  H  H97  1  0.50340000  0.21818000  0.13483000  1.0
  H  H98  1  0.50340000  0.13483000  0.21818000  1.0
  H  H99  1  0.50338000  0.28182000  0.36517000  1.0
  H  H100  1  0.00342000  0.28182000  0.86517000  1.0
  H  H101  1  0.00336000  0.13483000  0.71818000  1.0
  H  H102  1  0.00336000  0.21818000  0.63483000  1.0
  H  H103  1  0.00342000  0.36517000  0.78182000  1.0
  H  H104  1  0.13483000  0.99661000  0.28182000  1.0
  H  H105  1  0.28182000  0.99661000  0.13483000  1.0
  H  H106  1  0.36517000  0.99661000  0.21818000  1.0
  H  H107  1  0.21818000  0.99661000  0.36517000  1.0
  H  H108  1  0.36517000  0.49660000  0.71818000  1.0
  H  H109  1  0.21818000  0.49662000  0.86517000  1.0
  H  H110  1  0.13483000  0.49662000  0.78182000  1.0
  H  H111  1  0.28182000  0.49660000  0.63483000  1.0
  H  H112  1  0.86517000  0.99660000  0.71818000  1.0
  H  H113  1  0.71818000  0.99662000  0.86517000  1.0
  H  H114  1  0.63483000  0.99662000  0.78182000  1.0
  H  H115  1  0.78182000  0.99660000  0.63483000  1.0
  H  H116  1  0.63483000  0.49661000  0.28182000  1.0
  H  H117  1  0.78182000  0.49661000  0.13483000  1.0
  H  H118  1  0.86517000  0.49661000  0.21818000  1.0
  H  H119  1  0.71818000  0.49661000  0.36517000  1.0
  H  H120  1  0.13483000  0.00339000  0.71818000  1.0
  H  H121  1  0.28182000  0.00339000  0.86517000  1.0
  H  H122  1  0.36517000  0.00339000  0.78182000  1.0
  H  H123  1  0.21818000  0.00339000  0.63483000  1.0
  H  H124  1  0.36517000  0.50338000  0.28182000  1.0
  H  H125  1  0.21818000  0.50340000  0.13483000  1.0
  H  H126  1  0.13483000  0.50340000  0.21818000  1.0
  H  H127  1  0.28182000  0.50338000  0.36517000  1.0
  H  H128  1  0.86517000  0.00338000  0.28182000  1.0
  H  H129  1  0.71818000  0.00340000  0.13483000  1.0
  H  H130  1  0.63483000  0.00340000  0.21818000  1.0
  H  H131  1  0.78182000  0.00338000  0.36517000  1.0
  H  H132  1  0.63483000  0.50339000  0.71818000  1.0
  H  H133  1  0.78182000  0.50339000  0.86517000  1.0
  H  H134  1  0.86517000  0.50339000  0.78182000  1.0
  H  H135  1  0.71818000  0.50339000  0.63483000  1.0
  C  C136  1  0.85113000  0.14887000  0.00249000  1.0
  C  C137  1  0.14887000  0.14887000  0.99750000  1.0
  C  C138  1  0.99750000  0.14887000  0.14887000  1.0
  C  C139  1  0.00250000  0.14887000  0.85113000  1.0
  C  C140  1  0.14887000  0.85113000  0.00250000  1.0
  C  C141  1  0.85113000  0.85113000  0.99750000  1.0
  C  C142  1  0.14887000  0.99751000  0.14887000  1.0
  C  C143  1  0.14887000  0.00249000  0.85113000  1.0
  C  C144  1  0.85113000  0.99750000  0.85113000  1.0
  C  C145  1  0.85113000  0.00250000  0.14887000  1.0
  C  C146  1  0.00249000  0.85113000  0.14887000  1.0
  C  C147  1  0.99751000  0.85113000  0.85113000  1.0
  C  C148  1  0.35113000  0.64887000  0.00249000  1.0
  C  C149  1  0.64887000  0.64887000  0.99750000  1.0
  C  C150  1  0.49750000  0.64887000  0.14887000  1.0
  C  C151  1  0.50250000  0.64887000  0.85113000  1.0
  C  C152  1  0.64887000  0.35113000  0.00250000  1.0
  C  C153  1  0.35113000  0.35113000  0.99750000  1.0
  C  C154  1  0.64887000  0.49751000  0.14887000  1.0
  C  C155  1  0.64887000  0.50249000  0.85113000  1.0
  C  C156  1  0.35113000  0.49750000  0.85113000  1.0
  C  C157  1  0.35113000  0.50250000  0.14887000  1.0
  C  C158  1  0.50249000  0.35113000  0.14887000  1.0
  C  C159  1  0.49751000  0.35113000  0.85113000  1.0
  C  C160  1  0.85113000  0.64887000  0.50250000  1.0
  C  C161  1  0.14887000  0.64887000  0.49750000  1.0
  C  C162  1  0.99751000  0.64887000  0.64887000  1.0
  C  C163  1  0.00249000  0.64887000  0.35113000  1.0
  C  C164  1  0.14887000  0.35113000  0.50249000  1.0
  C  C165  1  0.85113000  0.35113000  0.49750000  1.0
  C  C166  1  0.14887000  0.49750000  0.64887000  1.0
  C  C167  1  0.14887000  0.50250000  0.35113000  1.0
  C  C168  1  0.85113000  0.49751000  0.35113000  1.0
  C  C169  1  0.85113000  0.50249000  0.64887000  1.0
  C  C170  1  0.00250000  0.35113000  0.64887000  1.0
  C  C171  1  0.99750000  0.35113000  0.35113000  1.0
  C  C172  1  0.35113000  0.14887000  0.50250000  1.0
  C  C173  1  0.64887000  0.14887000  0.49750000  1.0
  C  C174  1  0.49751000  0.14887000  0.64887000  1.0
  C  C175  1  0.50249000  0.14887000  0.35113000  1.0
  C  C176  1  0.64887000  0.85113000  0.50249000  1.0
  C  C177  1  0.35113000  0.85113000  0.49750000  1.0
  C  C178  1  0.64887000  0.99750000  0.64887000  1.0
  C  C179  1  0.64887000  0.00250000  0.35113000  1.0
  C  C180  1  0.35113000  0.99751000  0.35113000  1.0
  C  C181  1  0.35113000  0.00249000  0.64887000  1.0
  C  C182  1  0.50250000  0.85113000  0.64887000  1.0
  C  C183  1  0.49750000  0.85113000  0.35113000  1.0
  C  C184  1  0.26694000  0.18485000  0.99653000  1.0
  C  C185  1  0.20070000  0.20070000  0.99668000  1.0
  C  C186  1  0.18485000  0.26694000  0.99653000  1.0
  C  C187  1  0.23306000  0.31515000  0.99653000  1.0
  C  C188  1  0.29930000  0.29930000  0.99668000  1.0
  C  C189  1  0.31515000  0.23306000  0.99653000  1.0
  C  C190  1  0.26694000  0.68485000  0.49653000  1.0
  C  C191  1  0.20070000  0.70070000  0.49668000  1.0
  C  C192  1  0.18485000  0.76694000  0.49653000  1.0
  C  C193  1  0.23306000  0.81515000  0.49653000  1.0
  C  C194  1  0.29930000  0.79930000  0.49668000  1.0
  C  C195  1  0.31515000  0.73306000  0.49653000  1.0
  C  C196  1  0.81515000  0.73306000  0.99653000  1.0
  C  C197  1  0.79930000  0.79930000  0.99668000  1.0
  C  C198  1  0.73306000  0.81515000  0.99653000  1.0
  C  C199  1  0.68485000  0.76694000  0.99653000  1.0
  C  C200  1  0.70070000  0.70070000  0.99668000  1.0
  C  C201  1  0.76694000  0.68485000  0.99653000  1.0
  C  C202  1  0.81515000  0.23306000  0.49653000  1.0
  C  C203  1  0.79930000  0.29930000  0.49668000  1.0
  C  C204  1  0.73306000  0.31515000  0.49653000  1.0
  C  C205  1  0.68485000  0.26694000  0.49653000  1.0
  C  C206  1  0.70070000  0.20070000  0.49668000  1.0
  C  C207  1  0.76694000  0.18485000  0.49653000  1.0
  C  C208  1  0.81515000  0.26694000  0.00347000  1.0
  C  C209  1  0.79930000  0.20070000  0.00332000  1.0
  C  C210  1  0.73306000  0.18485000  0.00347000  1.0
  C  C211  1  0.68485000  0.23306000  0.00347000  1.0
  C  C212  1  0.70070000  0.29930000  0.00332000  1.0
  C  C213  1  0.76694000  0.31515000  0.00347000  1.0
  C  C214  1  0.81515000  0.76694000  0.50347000  1.0
  C  C215  1  0.79930000  0.70070000  0.50332000  1.0
  C  C216  1  0.73306000  0.68485000  0.50347000  1.0
  C  C217  1  0.68485000  0.73306000  0.50347000  1.0
  C  C218  1  0.70070000  0.79930000  0.50332000  1.0
  C  C219  1  0.76694000  0.81515000  0.50347000  1.0
  C  C220  1  0.18485000  0.23306000  0.50347000  1.0
  C  C221  1  0.20070000  0.29930000  0.50332000  1.0
  C  C222  1  0.26694000  0.31515000  0.50347000  1.0
  C  C223  1  0.31515000  0.26694000  0.50347000  1.0
  C  C224  1  0.29930000  0.20070000  0.50332000  1.0
  C  C225  1  0.23306000  0.18485000  0.50347000  1.0
  C  C226  1  0.18485000  0.73306000  0.00347000  1.0
  C  C227  1  0.20070000  0.79930000  0.00332000  1.0
  C  C228  1  0.26694000  0.81515000  0.00347000  1.0
  C  C229  1  0.31515000  0.76694000  0.00347000  1.0
  C  C230  1  0.29930000  0.70070000  0.00332000  1.0
  C  C231  1  0.23306000  0.68485000  0.00347000  1.0
  C  C232  1  0.99655000  0.26694000  0.18485000  1.0
  C  C233  1  0.99668000  0.20070000  0.20070000  1.0
  C  C234  1  0.99652000  0.18485000  0.26694000  1.0
  C  C235  1  0.99652000  0.23306000  0.31515000  1.0
  C  C236  1  0.99668000  0.29930000  0.29930000  1.0
  C  C237  1  0.99655000  0.31515000  0.23306000  1.0
  C  C238  1  0.49653000  0.31515000  0.73306000  1.0
  C  C239  1  0.49668000  0.29930000  0.79930000  1.0
  C  C240  1  0.49654000  0.23306000  0.81515000  1.0
  C  C241  1  0.49654000  0.18485000  0.76694000  1.0
  C  C242  1  0.49668000  0.20070000  0.70070000  1.0
  C  C243  1  0.49653000  0.26694000  0.68485000  1.0
  C  C244  1  0.99653000  0.81515000  0.73306000  1.0
  C  C245  1  0.99668000  0.79930000  0.79930000  1.0
  C  C246  1  0.99654000  0.73306000  0.81515000  1.0
  C  C247  1  0.99654000  0.68485000  0.76694000  1.0
  C  C248  1  0.99668000  0.70070000  0.70070000  1.0
  C  C249  1  0.99653000  0.76694000  0.68485000  1.0
  C  C250  1  0.49655000  0.76694000  0.18485000  1.0
  C  C251  1  0.49668000  0.70070000  0.20070000  1.0
  C  C252  1  0.49652000  0.68485000  0.26694000  1.0
  C  C253  1  0.49652000  0.73306000  0.31515000  1.0
  C  C254  1  0.49668000  0.79930000  0.29930000  1.0
  C  C255  1  0.49655000  0.81515000  0.23306000  1.0
  C  C256  1  0.00346000  0.81515000  0.26694000  1.0
  C  C257  1  0.00332000  0.79930000  0.20070000  1.0
  C  C258  1  0.00347000  0.73306000  0.18485000  1.0
  C  C259  1  0.00347000  0.68485000  0.23306000  1.0
  C  C260  1  0.00332000  0.70070000  0.29930000  1.0
  C  C261  1  0.00346000  0.76694000  0.31515000  1.0
  C  C262  1  0.50348000  0.76694000  0.81515000  1.0
  C  C263  1  0.50332000  0.70070000  0.79930000  1.0
  C  C264  1  0.50345000  0.68485000  0.73306000  1.0
  C  C265  1  0.50345000  0.73306000  0.68485000  1.0
  C  C266  1  0.50332000  0.79930000  0.70070000  1.0
  C  C267  1  0.50348000  0.81515000  0.76694000  1.0
  C  C268  1  0.50346000  0.31515000  0.26694000  1.0
  C  C269  1  0.50332000  0.29930000  0.20070000  1.0
  C  C270  1  0.50347000  0.23306000  0.18485000  1.0
  C  C271  1  0.50347000  0.18485000  0.23306000  1.0
  C  C272  1  0.50332000  0.20070000  0.29930000  1.0
  C  C273  1  0.50346000  0.26694000  0.31515000  1.0
  C  C274  1  0.00348000  0.26694000  0.81515000  1.0
  C  C275  1  0.00332000  0.20070000  0.79930000  1.0
  C  C276  1  0.00345000  0.18485000  0.73306000  1.0
  C  C277  1  0.00345000  0.23306000  0.68485000  1.0
  C  C278  1  0.00332000  0.29930000  0.70070000  1.0
  C  C279  1  0.00348000  0.31515000  0.76694000  1.0
  C  C280  1  0.18485000  0.99654000  0.26694000  1.0
  C  C281  1  0.20070000  0.99668000  0.20070000  1.0
  C  C282  1  0.26694000  0.99653000  0.18485000  1.0
  C  C283  1  0.31515000  0.99653000  0.23306000  1.0
  C  C284  1  0.29930000  0.99668000  0.29930000  1.0
  C  C285  1  0.23306000  0.99654000  0.31515000  1.0
  C  C286  1  0.31515000  0.49653000  0.73306000  1.0
  C  C287  1  0.29930000  0.49668000  0.79930000  1.0
  C  C288  1  0.23306000  0.49654000  0.81515000  1.0
  C  C289  1  0.18485000  0.49654000  0.76694000  1.0
  C  C290  1  0.20070000  0.49668000  0.70070000  1.0
  C  C291  1  0.26694000  0.49653000  0.68485000  1.0
  C  C292  1  0.81515000  0.99653000  0.73306000  1.0
  C  C293  1  0.79930000  0.99668000  0.79930000  1.0
  C  C294  1  0.73306000  0.99654000  0.81515000  1.0
  C  C295  1  0.68485000  0.99654000  0.76694000  1.0
  C  C296  1  0.70070000  0.99668000  0.70070000  1.0
  C  C297  1  0.76694000  0.99653000  0.68485000  1.0
  C  C298  1  0.68485000  0.49654000  0.26694000  1.0
  C  C299  1  0.70070000  0.49668000  0.20070000  1.0
  C  C300  1  0.76694000  0.49653000  0.18485000  1.0
  C  C301  1  0.81515000  0.49653000  0.23306000  1.0
  C  C302  1  0.79930000  0.49668000  0.29930000  1.0
  C  C303  1  0.73306000  0.49654000  0.31515000  1.0
  C  C304  1  0.18485000  0.00347000  0.73306000  1.0
  C  C305  1  0.20070000  0.00332000  0.79930000  1.0
  C  C306  1  0.26694000  0.00346000  0.81515000  1.0
  C  C307  1  0.31515000  0.00346000  0.76694000  1.0
  C  C308  1  0.29930000  0.00332000  0.70070000  1.0
  C  C309  1  0.23306000  0.00347000  0.68485000  1.0
  C  C310  1  0.31515000  0.50346000  0.26694000  1.0
  C  C311  1  0.29930000  0.50332000  0.20070000  1.0
  C  C312  1  0.23306000  0.50347000  0.18485000  1.0
  C  C313  1  0.18485000  0.50347000  0.23306000  1.0
  C  C314  1  0.20070000  0.50332000  0.29930000  1.0
  C  C315  1  0.26694000  0.50346000  0.31515000  1.0
  C  C316  1  0.81515000  0.00346000  0.26694000  1.0
  C  C317  1  0.79930000  0.00332000  0.20070000  1.0
  C  C318  1  0.73306000  0.00347000  0.18485000  1.0
  C  C319  1  0.68485000  0.00347000  0.23306000  1.0
  C  C320  1  0.70070000  0.00332000  0.29930000  1.0
  C  C321  1  0.76694000  0.00346000  0.31515000  1.0
  C  C322  1  0.68485000  0.50347000  0.73306000  1.0
  C  C323  1  0.70070000  0.50332000  0.79930000  1.0
  C  C324  1  0.76694000  0.50346000  0.81515000  1.0
  C  C325  1  0.81515000  0.50346000  0.76694000  1.0
  C  C326  1  0.79930000  0.50332000  0.70070000  1.0
  C  C327  1  0.73306000  0.50347000  0.68485000  1.0
  O  O328  1  0.83268000  0.08866000  0.00176000  1.0
  O  O329  1  0.16732000  0.08866000  0.99824000  1.0
  O  O330  1  0.99824000  0.16732000  0.08866000  1.0
  O  O331  1  0.00176000  0.16732000  0.91134000  1.0
  O  O332  1  0.00176000  0.08866000  0.83268000  1.0
  O  O333  1  0.99824000  0.08866000  0.16732000  1.0
  O  O334  1  0.08866000  0.16732000  0.99824000  1.0
  O  O335  1  0.91134000  0.16732000  0.00176000  1.0
  O  O336  1  0.05863000  0.05863000  0.94137000  1.0
  O  O337  1  0.94137000  0.05863000  0.05863000  1.0
  O  O338  1  0.05820000  0.05820000  0.05820000  1.0
  O  O339  1  0.94180000  0.05820000  0.94180000  1.0
  O  O340  1  0.16732000  0.91134000  0.00176000  1.0
  O  O341  1  0.83268000  0.91134000  0.99824000  1.0
  O  O342  1  0.08866000  0.99824000  0.16732000  1.0
  O  O343  1  0.08866000  0.00176000  0.83268000  1.0
  O  O344  1  0.91134000  0.99824000  0.83268000  1.0
  O  O345  1  0.91134000  0.00176000  0.16732000  1.0
  O  O346  1  0.00176000  0.83268000  0.08866000  1.0
  O  O347  1  0.99824000  0.83268000  0.91134000  1.0
  O  O348  1  0.00176000  0.91134000  0.16732000  1.0
  O  O349  1  0.99824000  0.91134000  0.83268000  1.0
  O  O350  1  0.16732000  0.99824000  0.08866000  1.0
  O  O351  1  0.83268000  0.00176000  0.08866000  1.0
  O  O352  1  0.83268000  0.99824000  0.91134000  1.0
  O  O353  1  0.16732000  0.00176000  0.91134000  1.0
  O  O354  1  0.08866000  0.83268000  0.00176000  1.0
  O  O355  1  0.91134000  0.83268000  0.99824000  1.0
  O  O356  1  0.94137000  0.94137000  0.94137000  1.0
  O  O357  1  0.05863000  0.94137000  0.05863000  1.0
  O  O358  1  0.94180000  0.94180000  0.05820000  1.0
  O  O359  1  0.05820000  0.94180000  0.94180000  1.0
  O  O360  1  0.33268000  0.58866000  0.00176000  1.0
  O  O361  1  0.66732000  0.58866000  0.99824000  1.0
  O  O362  1  0.49824000  0.66732000  0.08866000  1.0
  O  O363  1  0.50176000  0.66732000  0.91134000  1.0
  O  O364  1  0.50176000  0.58866000  0.83268000  1.0
  O  O365  1  0.49824000  0.58866000  0.16732000  1.0
  O  O366  1  0.58866000  0.66732000  0.99824000  1.0
  O  O367  1  0.41134000  0.66732000  0.00176000  1.0
  O  O368  1  0.55863000  0.55863000  0.94137000  1.0
  O  O369  1  0.44137000  0.55863000  0.05863000  1.0
  O  O370  1  0.55820000  0.55820000  0.05820000  1.0
  O  O371  1  0.44180000  0.55820000  0.94180000  1.0
  O  O372  1  0.66732000  0.41134000  0.00176000  1.0
  O  O373  1  0.33268000  0.41134000  0.99824000  1.0
  O  O374  1  0.58866000  0.49824000  0.16732000  1.0
  O  O375  1  0.58866000  0.50176000  0.83268000  1.0
  O  O376  1  0.41134000  0.49824000  0.83268000  1.0
  O  O377  1  0.41134000  0.50176000  0.16732000  1.0
  O  O378  1  0.50176000  0.33268000  0.08866000  1.0
  O  O379  1  0.49824000  0.33268000  0.91134000  1.0
  O  O380  1  0.50176000  0.41134000  0.16732000  1.0
  O  O381  1  0.49824000  0.41134000  0.83268000  1.0
  O  O382  1  0.66732000  0.49824000  0.08866000  1.0
  O  O383  1  0.33268000  0.50176000  0.08866000  1.0
  O  O384  1  0.33268000  0.49824000  0.91134000  1.0
  O  O385  1  0.66732000  0.50176000  0.91134000  1.0
  O  O386  1  0.58866000  0.33268000  0.00176000  1.0
  O  O387  1  0.41134000  0.33268000  0.99824000  1.0
  O  O388  1  0.44137000  0.44137000  0.94137000  1.0
  O  O389  1  0.55863000  0.44137000  0.05863000  1.0
  O  O390  1  0.44180000  0.44180000  0.05820000  1.0
  O  O391  1  0.55820000  0.44180000  0.94180000  1.0
  O  O392  1  0.83268000  0.58866000  0.50176000  1.0
  O  O393  1  0.16732000  0.58866000  0.49824000  1.0
  O  O394  1  0.99824000  0.66732000  0.58866000  1.0
  O  O395  1  0.00176000  0.66732000  0.41134000  1.0
  O  O396  1  0.00176000  0.58866000  0.33268000  1.0
  O  O397  1  0.99824000  0.58866000  0.66732000  1.0
  O  O398  1  0.08866000  0.66732000  0.49824000  1.0
  O  O399  1  0.91134000  0.66732000  0.50176000  1.0
  O  O400  1  0.05863000  0.55863000  0.44137000  1.0
  O  O401  1  0.94137000  0.55863000  0.55863000  1.0
  O  O402  1  0.05820000  0.55820000  0.55820000  1.0
  O  O403  1  0.94180000  0.55820000  0.44180000  1.0
  O  O404  1  0.16732000  0.41134000  0.50176000  1.0
  O  O405  1  0.83268000  0.41134000  0.49824000  1.0
  O  O406  1  0.08866000  0.49824000  0.66732000  1.0
  O  O407  1  0.08866000  0.50176000  0.33268000  1.0
  O  O408  1  0.91134000  0.49824000  0.33268000  1.0
  O  O409  1  0.91134000  0.50176000  0.66732000  1.0
  O  O410  1  0.00176000  0.33268000  0.58866000  1.0
  O  O411  1  0.99824000  0.33268000  0.41134000  1.0
  O  O412  1  0.00176000  0.41134000  0.66732000  1.0
  O  O413  1  0.99824000  0.41134000  0.33268000  1.0
  O  O414  1  0.16732000  0.49824000  0.58866000  1.0
  O  O415  1  0.83268000  0.50176000  0.58866000  1.0
  O  O416  1  0.83268000  0.49824000  0.41134000  1.0
  O  O417  1  0.16732000  0.50176000  0.41134000  1.0
  O  O418  1  0.08866000  0.33268000  0.50176000  1.0
  O  O419  1  0.91134000  0.33268000  0.49824000  1.0
  O  O420  1  0.94137000  0.44137000  0.44137000  1.0
  O  O421  1  0.05863000  0.44137000  0.55863000  1.0
  O  O422  1  0.94180000  0.44180000  0.55820000  1.0
  O  O423  1  0.05820000  0.44180000  0.44180000  1.0
  O  O424  1  0.33268000  0.08866000  0.50176000  1.0
  O  O425  1  0.66732000  0.08866000  0.49824000  1.0
  O  O426  1  0.49824000  0.16732000  0.58866000  1.0
  O  O427  1  0.50176000  0.16732000  0.41134000  1.0
  O  O428  1  0.50176000  0.08866000  0.33268000  1.0
  O  O429  1  0.49824000  0.08866000  0.66732000  1.0
  O  O430  1  0.58866000  0.16732000  0.49824000  1.0
  O  O431  1  0.41134000  0.16732000  0.50176000  1.0
  O  O432  1  0.55863000  0.05863000  0.44137000  1.0
  O  O433  1  0.44137000  0.05863000  0.55863000  1.0
  O  O434  1  0.55820000  0.05820000  0.55820000  1.0
  O  O435  1  0.44180000  0.05820000  0.44180000  1.0
  O  O436  1  0.66732000  0.91134000  0.50176000  1.0
  O  O437  1  0.33268000  0.91134000  0.49824000  1.0
  O  O438  1  0.58866000  0.99824000  0.66732000  1.0
  O  O439  1  0.58866000  0.00176000  0.33268000  1.0
  O  O440  1  0.41134000  0.99824000  0.33268000  1.0
  O  O441  1  0.41134000  0.00176000  0.66732000  1.0
  O  O442  1  0.50176000  0.83268000  0.58866000  1.0
  O  O443  1  0.49824000  0.83268000  0.41134000  1.0
  O  O444  1  0.50176000  0.91134000  0.66732000  1.0
  O  O445  1  0.49824000  0.91134000  0.33268000  1.0
  O  O446  1  0.66732000  0.99824000  0.58866000  1.0
  O  O447  1  0.33268000  0.00176000  0.58866000  1.0
  O  O448  1  0.33268000  0.99824000  0.41134000  1.0
  O  O449  1  0.66732000  0.00176000  0.41134000  1.0
  O  O450  1  0.58866000  0.83268000  0.50176000  1.0
  O  O451  1  0.41134000  0.83268000  0.49824000  1.0
  O  O452  1  0.44137000  0.94137000  0.44137000  1.0
  O  O453  1  0.55863000  0.94137000  0.55863000  1.0
  O  O454  1  0.44180000  0.94180000  0.55820000  1.0
  O  O455  1  0.55820000  0.94180000  0.44180000  1.0
