# generated using pymatgen
data_Cd5H18C42(NO5)4
_symmetry_space_group_name_H-M   'P 1'
_cell_length_a   13.63280000
_cell_length_b   14.40830000
_cell_length_c   25.84600000
_cell_angle_alpha   90.00000000
_cell_angle_beta   90.00000000
_cell_angle_gamma   109.81900000
_symmetry_Int_Tables_number   1
_chemical_formula_structural   Cd5H18C42(NO5)4
_chemical_formula_sum   'Cd20 H72 C168 N16 O80'
_cell_volume   4776.10494952
_cell_formula_units_Z   4
loop_
 _symmetry_equiv_pos_site_id
 _symmetry_equiv_pos_as_xyz
  1  'x, y, z'
loop_
 _atom_site_type_symbol
 _atom_site_label
 _atom_site_symmetry_multiplicity
 _atom_site_fract_x
 _atom_site_fract_y
 _atom_site_fract_z
 _atom_site_occupancy
  Cd  Cd0  1  0.63487000  0.14435000  0.92826000  1.0
  Cd  Cd1  1  0.63141000  0.85379000  0.00358000  1.0
  Cd  Cd2  1  0.73484000  0.75313000  0.90081000  1.0
  Cd  Cd3  1  0.75769000  0.76013000  0.09973000  1.0
  Cd  Cd4  1  0.35733000  0.35191000  0.24865000  1.0
  Cd  Cd5  1  0.86513000  0.35565000  0.42826000  1.0
  Cd  Cd6  1  0.86859000  0.64621000  0.50358000  1.0
  Cd  Cd7  1  0.76516000  0.74687000  0.40081000  1.0
  Cd  Cd8  1  0.74231000  0.73987000  0.59973000  1.0
  Cd  Cd9  1  0.14267000  0.14809000  0.74865000  1.0
  Cd  Cd10  1  0.36513000  0.85565000  0.07174000  1.0
  Cd  Cd11  1  0.36859000  0.14621000  0.99642000  1.0
  Cd  Cd12  1  0.26516000  0.24687000  0.09919000  1.0
  Cd  Cd13  1  0.24231000  0.23987000  0.90027000  1.0
  Cd  Cd14  1  0.64267000  0.64809000  0.75135000  1.0
  Cd  Cd15  1  0.13487000  0.64435000  0.57174000  1.0
  Cd  Cd16  1  0.13141000  0.35379000  0.49642000  1.0
  Cd  Cd17  1  0.23484000  0.25313000  0.59919000  1.0
  Cd  Cd18  1  0.25769000  0.26013000  0.40027000  1.0
  Cd  Cd19  1  0.85733000  0.85191000  0.25135000  1.0
  H  H20  1  0.94980000  0.13730000  0.98210000  1.0
  H  H21  1  0.66000000  0.47160000  0.97820000  1.0
  H  H22  1  0.73370000  0.53730000  0.89930000  1.0
  H  H23  1  0.83330000  0.43770000  0.90760000  1.0
  H  H24  1  0.14620000  0.55170000  0.84530000  1.0
  H  H25  1  0.23460000  0.44290000  0.84730000  1.0
  H  H26  1  0.05370000  0.28880000  0.95480000  1.0
  H  H27  1  0.95410000  0.38680000  0.95210000  1.0
  H  H28  1  0.08550000  0.67430000  0.88050000  1.0
  H  H29  1  0.98020000  0.76830000  0.87500000  1.0
  H  H30  1  0.86260000  0.06350000  0.28400000  1.0
  H  H31  1  0.76180000  0.16110000  0.28980000  1.0
  H  H32  1  0.46740000  0.05180000  0.20730000  1.0
  H  H33  1  0.37050000  0.15450000  0.20540000  1.0
  H  H34  1  0.52700000  0.30860000  0.32120000  1.0
  H  H35  1  0.62740000  0.21000000  0.32580000  1.0
  H  H36  1  0.51470000  0.93070000  0.24770000  1.0
  H  H37  1  0.62100000  0.83700000  0.24550000  1.0
  H  H38  1  0.55020000  0.36270000  0.48210000  1.0
  H  H39  1  0.84000000  0.02840000  0.47820000  1.0
  H  H40  1  0.76630000  0.96270000  0.39930000  1.0
  H  H41  1  0.66666667  0.06230000  0.40760000  1.0
  H  H42  1  0.35380000  0.94830000  0.34530000  1.0
  H  H43  1  0.26540000  0.05710000  0.34730000  1.0
  H  H44  1  0.44630000  0.21120000  0.45480000  1.0
  H  H45  1  0.54590000  0.11320000  0.45210000  1.0
  H  H46  1  0.41450000  0.82570000  0.38050000  1.0
  H  H47  1  0.51980000  0.73170000  0.37500000  1.0
  H  H48  1  0.63740000  0.43650000  0.78400000  1.0
  H  H49  1  0.73820000  0.33890000  0.78980000  1.0
  H  H50  1  0.03260000  0.44820000  0.70730000  1.0
  H  H51  1  0.12950000  0.34550000  0.70540000  1.0
  H  H52  1  0.97300000  0.19140000  0.82120000  1.0
  H  H53  1  0.87260000  0.29000000  0.82580000  1.0
  H  H54  1  0.98530000  0.56930000  0.74770000  1.0
  H  H55  1  0.87900000  0.66300000  0.74550000  1.0
  H  H56  1  0.05020000  0.86270000  0.01790000  1.0
  H  H57  1  0.34000000  0.52840000  0.02180000  1.0
  H  H58  1  0.26630000  0.46270000  0.10070000  1.0
  H  H59  1  0.16670000  0.56230000  0.09240000  1.0
  H  H60  1  0.85380000  0.44830000  0.15470000  1.0
  H  H61  1  0.76540000  0.55710000  0.15270000  1.0
  H  H62  1  0.94630000  0.71120000  0.04520000  1.0
  H  H63  1  0.04590000  0.61320000  0.04790000  1.0
  H  H64  1  0.91450000  0.32570000  0.11950000  1.0
  H  H65  1  0.01980000  0.23170000  0.12500000  1.0
  H  H66  1  0.13740000  0.93650000  0.71600000  1.0
  H  H67  1  0.23820000  0.83890000  0.71020000  1.0
  H  H68  1  0.53260000  0.94820000  0.79270000  1.0
  H  H69  1  0.62950000  0.84550000  0.79460000  1.0
  H  H70  1  0.47300000  0.69140000  0.67880000  1.0
  H  H71  1  0.37260000  0.79000000  0.67420000  1.0
  H  H72  1  0.48530000  0.06930000  0.75230000  1.0
  H  H73  1  0.37900000  0.16300000  0.75450000  1.0
  H  H74  1  0.44980000  0.63730000  0.51790000  1.0
  H  H75  1  0.16000000  0.97160000  0.52180000  1.0
  H  H76  1  0.23370000  0.03730000  0.60070000  1.0
  H  H77  1  0.33333333  0.93770000  0.59240000  1.0
  H  H78  1  0.64620000  0.05170000  0.65470000  1.0
  H  H79  1  0.73460000  0.94290000  0.65270000  1.0
  H  H80  1  0.55370000  0.78880000  0.54520000  1.0
  H  H81  1  0.45410000  0.88680000  0.54790000  1.0
  H  H82  1  0.58550000  0.17430000  0.61950000  1.0
  H  H83  1  0.48020000  0.26830000  0.62500000  1.0
  H  H84  1  0.36260000  0.56350000  0.21600000  1.0
  H  H85  1  0.26180000  0.66110000  0.21020000  1.0
  H  H86  1  0.96740000  0.55180000  0.29270000  1.0
  H  H87  1  0.87050000  0.65450000  0.29460000  1.0
  H  H88  1  0.02700000  0.80860000  0.17880000  1.0
  H  H89  1  0.12740000  0.71000000  0.17420000  1.0
  H  H90  1  0.01470000  0.43070000  0.25230000  1.0
  H  H91  1  0.12100000  0.33700000  0.25450000  1.0
  C  C92  1  0.02900000  0.09720000  0.03860000  1.0
  C  C93  1  0.01880000  0.05170000  0.08690000  1.0
  C  C94  1  0.91810000  0.01000000  0.10810000  1.0
  C  C95  1  0.83040000  0.01750000  0.08230000  1.0
  C  C96  1  0.84350000  0.06850000  0.03560000  1.0
  C  C97  1  0.94170000  0.10570000  0.01400000  1.0
  C  C98  1  0.13050000  0.13390000  0.00920000  1.0
  C  C99  1  0.10910000  0.03900000  0.11790000  1.0
  C  C100  1  0.90470000  0.95500000  0.15880000  1.0
  C  C101  1  0.72240000  0.97130000  0.10570000  1.0
  C  C102  1  0.75630000  0.08100000  0.00330000  1.0
  C  C103  1  0.61020000  0.53540000  0.03720000  1.0
  C  C104  1  0.56460000  0.51710000  0.08620000  1.0
  C  C105  1  0.52670000  0.41870000  0.10420000  1.0
  C  C106  1  0.53780000  0.34210000  0.07500000  1.0
  C  C107  1  0.58930000  0.36140000  0.02770000  1.0
  C  C108  1  0.62500000  0.45810000  0.00970000  1.0
  C  C109  1  0.64150000  0.63330000  0.01060000  1.0
  C  C110  1  0.54720000  0.59840000  0.11960000  1.0
  C  C111  1  0.46980000  0.39890000  0.15550000  1.0
  C  C112  1  0.49580000  0.23660000  0.09510000  1.0
  C  C113  1  0.60660000  0.28510000  0.99210000  1.0
  C  C114  1  0.80580000  0.56570000  0.89660000  1.0
  C  C115  1  0.86460000  0.50470000  0.90090000  1.0
  C  C116  1  0.97220000  0.54650000  0.89490000  1.0
  C  C117  1  0.03750000  0.48080000  0.89830000  1.0
  C  C118  1  0.12430000  0.49730000  0.86720000  1.0
  C  C119  1  0.17760000  0.43170000  0.86920000  1.0
  C  C120  1  0.07140000  0.34090000  0.93130000  1.0
  C  C121  1  0.01200000  0.40060000  0.93060000  1.0
  C  C122  1  0.01400000  0.64500000  0.88510000  1.0
  C  C123  1  0.95020000  0.70130000  0.88210000  1.0
  C  C124  1  0.79170000  0.03630000  0.27690000  1.0
  C  C125  1  0.73200000  0.09560000  0.27960000  1.0
  C  C126  1  0.62680000  0.05770000  0.26690000  1.0
  C  C127  1  0.56040000  0.12110000  0.26630000  1.0
  C  C128  1  0.48150000  0.10410000  0.23040000  1.0
  C  C129  1  0.42390000  0.16650000  0.22960000  1.0
  C  C130  1  0.51580000  0.25720000  0.29760000  1.0
  C  C131  1  0.57590000  0.19810000  0.30060000  1.0
  C  C132  1  0.58540000  0.95930000  0.25500000  1.0
  C  C133  1  0.64980000  0.90350000  0.25400000  1.0
  C  C134  1  0.47100000  0.40280000  0.53860000  1.0
  C  C135  1  0.48120000  0.44830000  0.58690000  1.0
  C  C136  1  0.58190000  0.49000000  0.60810000  1.0
  C  C137  1  0.66960000  0.48250000  0.58230000  1.0
  C  C138  1  0.65650000  0.43150000  0.53560000  1.0
  C  C139  1  0.55830000  0.39430000  0.51400000  1.0
  C  C140  1  0.36950000  0.36610000  0.50920000  1.0
  C  C141  1  0.39090000  0.46100000  0.61790000  1.0
  C  C142  1  0.59530000  0.54500000  0.65880000  1.0
  C  C143  1  0.77760000  0.52870000  0.60570000  1.0
  C  C144  1  0.74370000  0.41900000  0.50330000  1.0
  C  C145  1  0.88980000  0.96460000  0.53720000  1.0
  C  C146  1  0.93540000  0.98290000  0.58620000  1.0
  C  C147  1  0.97330000  0.08130000  0.60420000  1.0
  C  C148  1  0.96220000  0.15790000  0.57500000  1.0
  C  C149  1  0.91070000  0.13860000  0.52770000  1.0
  C  C150  1  0.87500000  0.04190000  0.50970000  1.0
  C  C151  1  0.85850000  0.86670000  0.51060000  1.0
  C  C152  1  0.95280000  0.90160000  0.61960000  1.0
  C  C153  1  0.03020000  0.10110000  0.65550000  1.0
  C  C154  1  0.00420000  0.26340000  0.59510000  1.0
  C  C155  1  0.89340000  0.21490000  0.49210000  1.0
  C  C156  1  0.69420000  0.93430000  0.39660000  1.0
  C  C157  1  0.63540000  0.99530000  0.40090000  1.0
  C  C158  1  0.52780000  0.95350000  0.39490000  1.0
  C  C159  1  0.46250000  0.01920000  0.39830000  1.0
  C  C160  1  0.37570000  0.00270000  0.36720000  1.0
  C  C161  1  0.32240000  0.06830000  0.36920000  1.0
  C  C162  1  0.42860000  0.15910000  0.43130000  1.0
  C  C163  1  0.48800000  0.09940000  0.43060000  1.0
  C  C164  1  0.48600000  0.85500000  0.38510000  1.0
  C  C165  1  0.54980000  0.79870000  0.38210000  1.0
  C  C166  1  0.70830000  0.46370000  0.77690000  1.0
  C  C167  1  0.76800000  0.40440000  0.77960000  1.0
  C  C168  1  0.87320000  0.44230000  0.76690000  1.0
  C  C169  1  0.93960000  0.37890000  0.76630000  1.0
  C  C170  1  0.01850000  0.39590000  0.73040000  1.0
  C  C171  1  0.07610000  0.33350000  0.72960000  1.0
  C  C172  1  0.98420000  0.24280000  0.79760000  1.0
  C  C173  1  0.92410000  0.30190000  0.80060000  1.0
  C  C174  1  0.91460000  0.54070000  0.75500000  1.0
  C  C175  1  0.85020000  0.59650000  0.75400000  1.0
  C  C176  1  0.97100000  0.90280000  0.96140000  1.0
  C  C177  1  0.98120000  0.94830000  0.91310000  1.0
  C  C178  1  0.08190000  0.99000000  0.89190000  1.0
  C  C179  1  0.16960000  0.98250000  0.91770000  1.0
  C  C180  1  0.15650000  0.93150000  0.96440000  1.0
  C  C181  1  0.05830000  0.89430000  0.98600000  1.0
  C  C182  1  0.86950000  0.86610000  0.99080000  1.0
  C  C183  1  0.89090000  0.96100000  0.88210000  1.0
  C  C184  1  0.09530000  0.04500000  0.84120000  1.0
  C  C185  1  0.27760000  0.02870000  0.89430000  1.0
  C  C186  1  0.24370000  0.91900000  0.99670000  1.0
  C  C187  1  0.38980000  0.46460000  0.96280000  1.0
  C  C188  1  0.43540000  0.48290000  0.91380000  1.0
  C  C189  1  0.47330000  0.58130000  0.89580000  1.0
  C  C190  1  0.46220000  0.65790000  0.92500000  1.0
  C  C191  1  0.41070000  0.63860000  0.97230000  1.0
  C  C192  1  0.37500000  0.54190000  0.99030000  1.0
  C  C193  1  0.35850000  0.36670000  0.98940000  1.0
  C  C194  1  0.45280000  0.40160000  0.88040000  1.0
  C  C195  1  0.53020000  0.60110000  0.84450000  1.0
  C  C196  1  0.50420000  0.76340000  0.90490000  1.0
  C  C197  1  0.39340000  0.71490000  0.00790000  1.0
  C  C198  1  0.19420000  0.43430000  0.10340000  1.0
  C  C199  1  0.13540000  0.49530000  0.09910000  1.0
  C  C200  1  0.02780000  0.45350000  0.10510000  1.0
  C  C201  1  0.96250000  0.51920000  0.10170000  1.0
  C  C202  1  0.87570000  0.50270000  0.13280000  1.0
  C  C203  1  0.82240000  0.56830000  0.13080000  1.0
  C  C204  1  0.92860000  0.65910000  0.06870000  1.0
  C  C205  1  0.98800000  0.59940000  0.06940000  1.0
  C  C206  1  0.98600000  0.35500000  0.11490000  1.0
  C  C207  1  0.04980000  0.29870000  0.11790000  1.0
  C  C208  1  0.20830000  0.96370000  0.72310000  1.0
  C  C209  1  0.26800000  0.90440000  0.72040000  1.0
  C  C210  1  0.37320000  0.94230000  0.73310000  1.0
  C  C211  1  0.43960000  0.87890000  0.73370000  1.0
  C  C212  1  0.51850000  0.89590000  0.76960000  1.0
  C  C213  1  0.57610000  0.83350000  0.77040000  1.0
  C  C214  1  0.48420000  0.74280000  0.70240000  1.0
  C  C215  1  0.42410000  0.80190000  0.69940000  1.0
  C  C216  1  0.41460000  0.04070000  0.74500000  1.0
  C  C217  1  0.35020000  0.09650000  0.74600000  1.0
  C  C218  1  0.52900000  0.59720000  0.46140000  1.0
  C  C219  1  0.51880000  0.55170000  0.41310000  1.0
  C  C220  1  0.41810000  0.51000000  0.39190000  1.0
  C  C221  1  0.33040000  0.51750000  0.41770000  1.0
  C  C222  1  0.34350000  0.56850000  0.46440000  1.0
  C  C223  1  0.44170000  0.60570000  0.48600000  1.0
  C  C224  1  0.63050000  0.63390000  0.49080000  1.0
  C  C225  1  0.60910000  0.53900000  0.38210000  1.0
  C  C226  1  0.40470000  0.45500000  0.34120000  1.0
  C  C227  1  0.22240000  0.47130000  0.39430000  1.0
  C  C228  1  0.25630000  0.58100000  0.49670000  1.0
  C  C229  1  0.11020000  0.03540000  0.46280000  1.0
  C  C230  1  0.06460000  0.01710000  0.41380000  1.0
  C  C231  1  0.02670000  0.91870000  0.39580000  1.0
  C  C232  1  0.03780000  0.84210000  0.42500000  1.0
  C  C233  1  0.08930000  0.86140000  0.47230000  1.0
  C  C234  1  0.12500000  0.95810000  0.49030000  1.0
  C  C235  1  0.14150000  0.13330000  0.48940000  1.0
  C  C236  1  0.04720000  0.09840000  0.38040000  1.0
  C  C237  1  0.96980000  0.89890000  0.34450000  1.0
  C  C238  1  0.99580000  0.73660000  0.40490000  1.0
  C  C239  1  0.10660000  0.78510000  0.50790000  1.0
  C  C240  1  0.30580000  0.06570000  0.60340000  1.0
  C  C241  1  0.36460000  0.00470000  0.59910000  1.0
  C  C242  1  0.47220000  0.04650000  0.60510000  1.0
  C  C243  1  0.53750000  0.98080000  0.60170000  1.0
  C  C244  1  0.62430000  0.99730000  0.63280000  1.0
  C  C245  1  0.67760000  0.93170000  0.63080000  1.0
  C  C246  1  0.57140000  0.84090000  0.56870000  1.0
  C  C247  1  0.51200000  0.90060000  0.56940000  1.0
  C  C248  1  0.51400000  0.14500000  0.61490000  1.0
  C  C249  1  0.45020000  0.20130000  0.61790000  1.0
  C  C250  1  0.29170000  0.53630000  0.22310000  1.0
  C  C251  1  0.23200000  0.59560000  0.22040000  1.0
  C  C252  1  0.12680000  0.55770000  0.23310000  1.0
  C  C253  1  0.06040000  0.62110000  0.23370000  1.0
  C  C254  1  0.98150000  0.60410000  0.26960000  1.0
  C  C255  1  0.92390000  0.66650000  0.27040000  1.0
  C  C256  1  0.01580000  0.75720000  0.20240000  1.0
  C  C257  1  0.07590000  0.69810000  0.19940000  1.0
  C  C258  1  0.08540000  0.45930000  0.24500000  1.0
  C  C259  1  0.14980000  0.40350000  0.24600000  1.0
  N  N260  1  0.84610000  0.66340000  0.88884000  1.0
  N  N261  1  0.15330000  0.35270000  0.90050000  1.0
  N  N262  1  0.75200000  0.94070000  0.26453000  1.0
  N  N263  1  0.44070000  0.24300000  0.26154000  1.0
  N  N264  1  0.65390000  0.83660000  0.38884000  1.0
  N  N265  1  0.34670000  0.14730000  0.40050000  1.0
  N  N266  1  0.74800000  0.55930000  0.76453000  1.0
  N  N267  1  0.05930000  0.25700000  0.76154000  1.0
  N  N268  1  0.15390000  0.33660000  0.11116000  1.0
  N  N269  1  0.84670000  0.64730000  0.09950000  1.0
  N  N270  1  0.24800000  0.05930000  0.73547000  1.0
  N  N271  1  0.55930000  0.75700000  0.73846000  1.0
  N  N272  1  0.34610000  0.16340000  0.61116000  1.0
  N  N273  1  0.65330000  0.85270000  0.59950000  1.0
  N  N274  1  0.25200000  0.44070000  0.23547000  1.0
  N  N275  1  0.94070000  0.74300000  0.23846000  1.0
  O  O276  1  0.12950000  0.16570000  0.96472000  1.0
  O  O277  1  0.21070000  0.12900000  0.03264000  1.0
  O  O278  1  0.16800000  0.11440000  0.14198000  1.0
  O  O279  1  0.11370000  0.95580000  0.12060000  1.0
  O  O280  1  0.95640000  0.99400000  0.19681000  1.0
  O  O281  1  0.83810000  0.86730000  0.16053000  1.0
  O  O282  1  0.69050000  0.02030000  0.13555000  1.0
  O  O283  1  0.67100000  0.88140000  0.09153000  1.0
  O  O284  1  0.66640000  0.01630000  0.00458000  1.0
  O  O285  1  0.77740000  0.15500000  0.97550000  1.0
  O  O286  1  0.67480000  0.63920000  0.96541000  1.0
  O  O287  1  0.62980000  0.70540000  0.03564000  1.0
  O  O288  1  0.62630000  0.65570000  0.14367000  1.0
  O  O289  1  0.45740000  0.59940000  0.12202000  1.0
  O  O290  1  0.51050000  0.44660000  0.19409000  1.0
  O  O291  1  0.38020000  0.33190000  0.15807000  1.0
  O  O292  1  0.55280000  0.20490000  0.12076000  1.0
  O  O293  1  0.40120000  0.18500000  0.08296000  1.0
  O  O294  1  0.54320000  0.19520000  0.99462000  1.0
  O  O295  1  0.68030000  0.31020000  0.96140000  1.0
  O  O296  1  0.37050000  0.33430000  0.46472000  1.0
  O  O297  1  0.28930000  0.37100000  0.53264000  1.0
  O  O298  1  0.33200000  0.38560000  0.64198000  1.0
  O  O299  1  0.38630000  0.54420000  0.62060000  1.0
  O  O300  1  0.54360000  0.50600000  0.69681000  1.0
  O  O301  1  0.66190000  0.63270000  0.66053000  1.0
  O  O302  1  0.80950000  0.47970000  0.63555000  1.0
  O  O303  1  0.82900000  0.61860000  0.59153000  1.0
  O  O304  1  0.83360000  0.48370000  0.50458000  1.0
  O  O305  1  0.72260000  0.34500000  0.47550000  1.0
  O  O306  1  0.82520000  0.86080000  0.46541000  1.0
  O  O307  1  0.87020000  0.79460000  0.53564000  1.0
  O  O308  1  0.87370000  0.84430000  0.64367000  1.0
  O  O309  1  0.04260000  0.90060000  0.62202000  1.0
  O  O310  1  0.98950000  0.05340000  0.69409000  1.0
  O  O311  1  0.11980000  0.16810000  0.65807000  1.0
  O  O312  1  0.94720000  0.29510000  0.62076000  1.0
  O  O313  1  0.09880000  0.31500000  0.58296000  1.0
  O  O314  1  0.95680000  0.30480000  0.49462000  1.0
  O  O315  1  0.81970000  0.18980000  0.46140000  1.0
  O  O316  1  0.87050000  0.83430000  0.03528000  1.0
  O  O317  1  0.78930000  0.87100000  0.96736000  1.0
  O  O318  1  0.83200000  0.88560000  0.85802000  1.0
  O  O319  1  0.88630000  0.04420000  0.87940000  1.0
  O  O320  1  0.04360000  0.00600000  0.80319000  1.0
  O  O321  1  0.16190000  0.13270000  0.83947000  1.0
  O  O322  1  0.30950000  0.97970000  0.86445000  1.0
  O  O323  1  0.32900000  0.11860000  0.90847000  1.0
  O  O324  1  0.33360000  0.98370000  0.99542000  1.0
  O  O325  1  0.22260000  0.84500000  0.02450000  1.0
  O  O326  1  0.32520000  0.36080000  0.03459000  1.0
  O  O327  1  0.37020000  0.29460000  0.96436000  1.0
  O  O328  1  0.37370000  0.34430000  0.85633000  1.0
  O  O329  1  0.54260000  0.40060000  0.87798000  1.0
  O  O330  1  0.48950000  0.55340000  0.80591000  1.0
  O  O331  1  0.61980000  0.66810000  0.84193000  1.0
  O  O332  1  0.44720000  0.79510000  0.87924000  1.0
  O  O333  1  0.59880000  0.81500000  0.91704000  1.0
  O  O334  1  0.45680000  0.80480000  0.00538000  1.0
  O  O335  1  0.31970000  0.68980000  0.03860000  1.0
  O  O336  1  0.62950000  0.66570000  0.53528000  1.0
  O  O337  1  0.71070000  0.62900000  0.46736000  1.0
  O  O338  1  0.66800000  0.61440000  0.35802000  1.0
  O  O339  1  0.61370000  0.45580000  0.37940000  1.0
  O  O340  1  0.45640000  0.49400000  0.30319000  1.0
  O  O341  1  0.33810000  0.36730000  0.33947000  1.0
  O  O342  1  0.19050000  0.52030000  0.36445000  1.0
  O  O343  1  0.17100000  0.38140000  0.40847000  1.0
  O  O344  1  0.16640000  0.51630000  0.49542000  1.0
  O  O345  1  0.27740000  0.65500000  0.52450000  1.0
  O  O346  1  0.17480000  0.13920000  0.53459000  1.0
  O  O347  1  0.12980000  0.20540000  0.46436000  1.0
  O  O348  1  0.12630000  0.15570000  0.35633000  1.0
  O  O349  1  0.95740000  0.09940000  0.37798000  1.0
  O  O350  1  0.01050000  0.94660000  0.30591000  1.0
  O  O351  1  0.88020000  0.83190000  0.34193000  1.0
  O  O352  1  0.05280000  0.70490000  0.37924000  1.0
  O  O353  1  0.90120000  0.68500000  0.41704000  1.0
  O  O354  1  0.04320000  0.69520000  0.50538000  1.0
  O  O355  1  0.18030000  0.81020000  0.53860000  1.0
