# generated using pymatgen
data_ZnH2(CO2)2
_symmetry_space_group_name_H-M   'P 1'
_cell_length_a   9.97810000
_cell_length_b   11.36470000
_cell_length_c   15.05480000
_cell_angle_alpha   90.99620000
_cell_angle_beta   90.00000000
_cell_angle_gamma   90.00000000
_symmetry_Int_Tables_number   1
_chemical_formula_structural   ZnH2(CO2)2
_chemical_formula_sum   'Zn12 H24 C24 O48'
_cell_volume   1706.92787225
_cell_formula_units_Z   12
loop_
 _symmetry_equiv_pos_site_id
 _symmetry_equiv_pos_as_xyz
  1  'x, y, z'
loop_
 _atom_site_type_symbol
 _atom_site_label
 _atom_site_symmetry_multiplicity
 _atom_site_fract_x
 _atom_site_fract_y
 _atom_site_fract_z
 _atom_site_occupancy
  Zn  Zn0  1  0.93024000  0.75458000  0.13241000  1.0
  Zn  Zn1  1  0.12463000  0.74191000  0.30279000  1.0
  Zn  Zn2  1  0.43024000  0.74542000  0.36759000  1.0
  Zn  Zn3  1  0.62463000  0.75809000  0.19721000  1.0
  Zn  Zn4  1  0.06976000  0.24542000  0.86759000  1.0
  Zn  Zn5  1  0.87537000  0.25809000  0.69721000  1.0
  Zn  Zn6  1  0.56976000  0.25458000  0.63241000  1.0
  Zn  Zn7  1  0.37537000  0.24191000  0.80279000  1.0
  Zn  Zn8  1  0.00000000  0.50000000  0.00000000  1.0
  Zn  Zn9  1  0.50000000  0.00000000  0.50000000  1.0
  Zn  Zn10  1  0.00000000  0.00000000  0.00000000  1.0
  Zn  Zn11  1  0.50000000  0.50000000  0.50000000  1.0
  H  H12  1  0.77860000  0.85400000  0.36640000  1.0
  H  H13  1  0.06450000  0.47820000  0.25460000  1.0
  H  H14  1  0.63010000  0.53780000  0.07460000  1.0
  H  H15  1  0.22900000  0.96370000  0.20630000  1.0
  H  H16  1  0.13200000  0.69540000  0.91850000  1.0
  H  H17  1  0.71350000  0.00200000  0.03230000  1.0
  H  H18  1  0.27860000  0.64600000  0.13360000  1.0
  H  H19  1  0.56450000  0.02180000  0.24540000  1.0
  H  H20  1  0.13010000  0.96220000  0.42540000  1.0
  H  H21  1  0.72900000  0.53630000  0.29370000  1.0
  H  H22  1  0.63200000  0.80460000  0.58150000  1.0
  H  H23  1  0.21350000  0.49800000  0.46770000  1.0
  H  H24  1  0.22140000  0.14600000  0.63360000  1.0
  H  H25  1  0.93550000  0.52180000  0.74540000  1.0
  H  H26  1  0.36990000  0.46220000  0.92540000  1.0
  H  H27  1  0.77100000  0.03630000  0.79370000  1.0
  H  H28  1  0.86800000  0.30460000  0.08150000  1.0
  H  H29  1  0.28650000  0.99800000  0.96770000  1.0
  H  H30  1  0.72140000  0.35400000  0.86640000  1.0
  H  H31  1  0.43550000  0.97820000  0.75460000  1.0
  H  H32  1  0.86990000  0.03780000  0.57460000  1.0
  H  H33  1  0.27100000  0.46370000  0.70630000  1.0
  H  H34  1  0.36800000  0.19540000  0.41850000  1.0
  H  H35  1  0.78650000  0.50200000  0.53230000  1.0
  C  C36  1  0.84750000  0.82610000  0.32800000  1.0
  C  C37  1  0.03920000  0.52030000  0.20320000  1.0
  C  C38  1  0.72080000  0.56270000  0.07130000  1.0
  C  C39  1  0.15630000  0.94160000  0.16880000  1.0
  C  C40  1  0.08530000  0.74150000  0.96160000  1.0
  C  C41  1  0.73230000  0.93570000  0.06780000  1.0
  C  C42  1  0.34750000  0.67390000  0.17200000  1.0
  C  C43  1  0.53920000  0.97970000  0.29680000  1.0
  C  C44  1  0.22080000  0.93730000  0.42870000  1.0
  C  C45  1  0.65630000  0.55840000  0.33120000  1.0
  C  C46  1  0.58530000  0.75850000  0.53840000  1.0
  C  C47  1  0.23230000  0.56430000  0.43220000  1.0
  C  C48  1  0.15250000  0.17390000  0.67200000  1.0
  C  C49  1  0.96080000  0.47970000  0.79680000  1.0
  C  C50  1  0.27920000  0.43730000  0.92870000  1.0
  C  C51  1  0.84370000  0.05840000  0.83120000  1.0
  C  C52  1  0.91470000  0.25850000  0.03840000  1.0
  C  C53  1  0.26770000  0.06430000  0.93220000  1.0
  C  C54  1  0.65250000  0.32610000  0.82800000  1.0
  C  C55  1  0.46080000  0.02030000  0.70320000  1.0
  C  C56  1  0.77920000  0.06270000  0.57130000  1.0
  C  C57  1  0.34370000  0.44160000  0.66880000  1.0
  C  C58  1  0.41470000  0.24150000  0.46160000  1.0
  C  C59  1  0.76770000  0.43570000  0.56780000  1.0
  O  O60  1  0.81534000  0.80607000  0.24777000  1.0
  O  O61  1  0.96048000  0.81277000  0.36147000  1.0
  O  O62  1  0.02126000  0.63096000  0.21346000  1.0
  O  O63  1  0.02720000  0.46264000  0.13384000  1.0
  O  O64  1  0.75429000  0.65066000  0.12076000  1.0
  O  O65  1  0.79442000  0.50695000  0.01965000  1.0
  O  O66  1  0.09456000  0.84774000  0.18834000  1.0
  O  O67  1  0.13200000  0.00724000  0.10644000  1.0
  O  O68  1  0.01943000  0.68536000  0.02046000  1.0
  O  O69  1  0.09415000  0.84932000  0.95522000  1.0
  O  O70  1  0.85441000  0.90058000  0.06968000  1.0
  O  O71  1  0.63628000  0.89192000  0.10792000  1.0
  O  O72  1  0.31534000  0.69393000  0.25223000  1.0
  O  O73  1  0.46048000  0.68723000  0.13853000  1.0
  O  O74  1  0.52126000  0.86904000  0.28654000  1.0
  O  O75  1  0.52720000  0.03736000  0.36616000  1.0
  O  O76  1  0.25429000  0.84934000  0.37924000  1.0
  O  O77  1  0.29442000  0.99305000  0.48035000  1.0
  O  O78  1  0.59456000  0.65226000  0.31166000  1.0
  O  O79  1  0.63200000  0.49276000  0.39356000  1.0
  O  O80  1  0.51943000  0.81464000  0.47954000  1.0
  O  O81  1  0.59415000  0.65068000  0.54478000  1.0
  O  O82  1  0.35441000  0.59942000  0.43032000  1.0
  O  O83  1  0.13628000  0.60808000  0.39208000  1.0
  O  O84  1  0.18466000  0.19393000  0.75223000  1.0
  O  O85  1  0.03952000  0.18723000  0.63853000  1.0
  O  O86  1  0.97874000  0.36904000  0.78654000  1.0
  O  O87  1  0.97280000  0.53736000  0.86616000  1.0
  O  O88  1  0.24571000  0.34934000  0.87924000  1.0
  O  O89  1  0.20558000  0.49305000  0.98035000  1.0
  O  O90  1  0.90544000  0.15226000  0.81166000  1.0
  O  O91  1  0.86800000  0.99276000  0.89356000  1.0
  O  O92  1  0.98057000  0.31464000  0.97954000  1.0
  O  O93  1  0.90585000  0.15068000  0.04478000  1.0
  O  O94  1  0.14559000  0.09942000  0.93032000  1.0
  O  O95  1  0.36372000  0.10808000  0.89208000  1.0
  O  O96  1  0.68466000  0.30607000  0.74777000  1.0
  O  O97  1  0.53952000  0.31277000  0.86147000  1.0
  O  O98  1  0.47874000  0.13096000  0.71346000  1.0
  O  O99  1  0.47280000  0.96264000  0.63384000  1.0
  O  O100  1  0.74571000  0.15066000  0.62076000  1.0
  O  O101  1  0.70558000  0.00695000  0.51965000  1.0
  O  O102  1  0.40544000  0.34774000  0.68834000  1.0
  O  O103  1  0.36800000  0.50724000  0.60644000  1.0
  O  O104  1  0.48057000  0.18536000  0.52046000  1.0
  O  O105  1  0.40585000  0.34932000  0.45522000  1.0
  O  O106  1  0.64559000  0.40058000  0.56968000  1.0
  O  O107  1  0.86372000  0.39192000  0.60792000  1.0
