# generated using pymatgen
data_Mn3H18C34(O5F6)2
_symmetry_space_group_name_H-M   'P 1'
_cell_length_a   7.31600000
_cell_length_b   16.53300000
_cell_length_c   32.02300000
_cell_angle_alpha   90.00000000
_cell_angle_beta   90.00000000
_cell_angle_gamma   99.91000000
_symmetry_Int_Tables_number   1
_chemical_formula_structural   Mn3H18C34(O5F6)2
_chemical_formula_sum   'Mn12 H72 C136 O40 F48'
_cell_volume   3815.56250785
_cell_formula_units_Z   4
loop_
 _symmetry_equiv_pos_site_id
 _symmetry_equiv_pos_as_xyz
  1  'x, y, z'
loop_
 _atom_site_type_symbol
 _atom_site_label
 _atom_site_symmetry_multiplicity
 _atom_site_fract_x
 _atom_site_fract_y
 _atom_site_fract_z
 _atom_site_occupancy
  Mn  Mn0  1  0.74763000  0.60146000  0.07068000  1.0
  Mn  Mn1  1  0.27354000  0.62514000  0.07365000  1.0
  Mn  Mn2  1  0.25237000  0.89854000  0.57068000  1.0
  Mn  Mn3  1  0.72646000  0.87486000  0.57365000  1.0
  Mn  Mn4  1  0.25237000  0.39854000  0.92932000  1.0
  Mn  Mn5  1  0.72646000  0.37486000  0.92635000  1.0
  Mn  Mn6  1  0.74763000  0.10146000  0.42932000  1.0
  Mn  Mn7  1  0.27354000  0.12514000  0.42635000  1.0
  Mn  Mn8  1  0.00000000  0.50000000  0.00000000  1.0
  Mn  Mn9  1  0.00000000  0.00000000  0.50000000  1.0
  Mn  Mn10  1  0.50000000  0.50000000  0.00000000  1.0
  Mn  Mn11  1  0.50000000  0.00000000  0.50000000  1.0
  H  H12  1  0.15010000  0.76790000  0.00300000  1.0
  H  H13  1  0.05810000  0.87510000  0.96670000  1.0
  H  H14  1  0.20560000  0.78150000  0.85810000  1.0
  H  H15  1  0.32720000  0.68120000  0.89500000  1.0
  H  H16  1  0.43900000  0.50400000  0.07750000  1.0
  H  H17  1  0.79000000  0.61400000  0.99720000  1.0
  H  H18  1  0.89480000  0.04730000  0.90820000  1.0
  H  H19  1  0.04500000  0.17490000  0.93130000  1.0
  H  H20  1  0.53420000  0.09470000  0.92790000  1.0
  H  H21  1  0.38290000  0.96550000  0.90730000  1.0
  H  H22  1  0.22600000  0.38970000  0.09890000  1.0
  H  H23  1  0.39800000  0.34240000  0.15180000  1.0
  H  H24  1  0.10410000  0.44480000  0.23790000  1.0
  H  H25  1  0.92610000  0.48810000  0.18510000  1.0
  H  H26  1  0.06230000  0.26820000  0.23620000  1.0
  H  H27  1  0.87810000  0.19900000  0.28910000  1.0
  H  H28  1  0.26030000  0.29720000  0.37450000  1.0
  H  H29  1  0.43600000  0.37040000  0.32210000  1.0
  H  H30  1  0.84990000  0.73210000  0.50300000  1.0
  H  H31  1  0.94190000  0.62490000  0.46670000  1.0
  H  H32  1  0.79440000  0.71850000  0.35810000  1.0
  H  H33  1  0.67280000  0.81880000  0.39500000  1.0
  H  H34  1  0.56100000  0.99600000  0.57750000  1.0
  H  H35  1  0.21000000  0.88600000  0.49720000  1.0
  H  H36  1  0.10520000  0.45270000  0.40820000  1.0
  H  H37  1  0.95500000  0.32510000  0.43130000  1.0
  H  H38  1  0.46580000  0.40530000  0.42790000  1.0
  H  H39  1  0.61710000  0.53450000  0.40730000  1.0
  H  H40  1  0.77400000  0.11030000  0.59890000  1.0
  H  H41  1  0.60200000  0.15760000  0.65180000  1.0
  H  H42  1  0.89590000  0.05520000  0.73790000  1.0
  H  H43  1  0.07390000  0.01190000  0.68510000  1.0
  H  H44  1  0.93770000  0.23180000  0.73620000  1.0
  H  H45  1  0.12190000  0.30100000  0.78910000  1.0
  H  H46  1  0.73970000  0.20280000  0.87450000  1.0
  H  H47  1  0.56400000  0.12960000  0.82210000  1.0
  H  H48  1  0.84990000  0.23210000  0.99700000  1.0
  H  H49  1  0.94190000  0.12490000  0.03330000  1.0
  H  H50  1  0.79440000  0.21850000  0.14190000  1.0
  H  H51  1  0.67280000  0.31880000  0.10500000  1.0
  H  H52  1  0.56100000  0.49600000  0.92250000  1.0
  H  H53  1  0.21000000  0.38600000  0.00280000  1.0
  H  H54  1  0.10520000  0.95270000  0.09180000  1.0
  H  H55  1  0.95500000  0.82510000  0.06870000  1.0
  H  H56  1  0.46580000  0.90530000  0.07210000  1.0
  H  H57  1  0.61710000  0.03450000  0.09270000  1.0
  H  H58  1  0.77400000  0.61030000  0.90110000  1.0
  H  H59  1  0.60200000  0.65760000  0.84820000  1.0
  H  H60  1  0.89590000  0.55520000  0.76210000  1.0
  H  H61  1  0.07390000  0.51190000  0.81490000  1.0
  H  H62  1  0.93770000  0.73180000  0.76380000  1.0
  H  H63  1  0.12190000  0.80100000  0.71090000  1.0
  H  H64  1  0.73970000  0.70280000  0.62550000  1.0
  H  H65  1  0.56400000  0.62960000  0.67790000  1.0
  H  H66  1  0.15010000  0.26790000  0.49700000  1.0
  H  H67  1  0.05810000  0.37510000  0.53330000  1.0
  H  H68  1  0.20560000  0.28150000  0.64190000  1.0
  H  H69  1  0.32720000  0.18120000  0.60500000  1.0
  H  H70  1  0.43900000  0.00400000  0.42250000  1.0
  H  H71  1  0.79000000  0.11400000  0.50280000  1.0
  H  H72  1  0.89480000  0.54730000  0.59180000  1.0
  H  H73  1  0.04500000  0.67490000  0.56870000  1.0
  H  H74  1  0.53420000  0.59470000  0.57210000  1.0
  H  H75  1  0.38290000  0.46550000  0.59270000  1.0
  H  H76  1  0.22600000  0.88970000  0.40110000  1.0
  H  H77  1  0.39800000  0.84240000  0.34820000  1.0
  H  H78  1  0.10410000  0.94480000  0.26210000  1.0
  H  H79  1  0.92610000  0.98810000  0.31490000  1.0
  H  H80  1  0.06230000  0.76820000  0.26380000  1.0
  H  H81  1  0.87810000  0.69900000  0.21090000  1.0
  H  H82  1  0.26030000  0.79720000  0.12550000  1.0
  H  H83  1  0.43600000  0.87040000  0.17790000  1.0
  C  C84  1  0.30630000  0.64320000  0.97616000  1.0
  C  C85  1  0.24900000  0.71360000  0.95270000  1.0
  C  C86  1  0.16570000  0.77160000  0.97404000  1.0
  C  C87  1  0.10640000  0.83460000  0.95210000  1.0
  C  C88  1  0.11750000  0.83870000  0.90830000  1.0
  C  C89  1  0.19810000  0.78000000  0.88726000  1.0
  C  C90  1  0.26800000  0.71870000  0.90929000  1.0
  C  C91  1  0.03420000  0.90800000  0.88679000  1.0
  C  C92  1  0.07100000  0.91330000  0.83883000  1.0
  C  C93  1  0.81920000  0.88820000  0.89312000  1.0
  C  C94  1  0.12200000  0.99330000  0.90482000  1.0
  C  C95  1  0.02330000  0.05650000  0.91225000  1.0
  C  C96  1  0.11350000  0.13340000  0.92571000  1.0
  C  C97  1  0.30680000  0.14860000  0.93082000  1.0
  C  C98  1  0.40560000  0.08530000  0.92400000  1.0
  C  C99  1  0.31510000  0.00790000  0.91139000  1.0
  C  C100  1  0.40150000  0.23540000  0.94126000  1.0
  C  C101  1  0.96030000  0.48250000  0.10266000  1.0
  C  C102  1  0.06160000  0.44570000  0.13645000  1.0
  C  C103  1  0.20180000  0.40080000  0.12677000  1.0
  C  C104  1  0.30520000  0.37260000  0.15847000  1.0
  C  C105  1  0.27090000  0.38940000  0.20034000  1.0
  C  C106  1  0.12830000  0.43340000  0.20998000  1.0
  C  C107  1  0.02300000  0.46030000  0.17833000  1.0
  C  C108  1  0.39120000  0.36590000  0.23679000  1.0
  C  C109  1  0.51110000  0.30080000  0.22390000  1.0
  C  C110  1  0.52440000  0.44620000  0.25010000  1.0
  C  C111  1  0.26910000  0.32690000  0.27358000  1.0
  C  C112  1  0.10130000  0.27460000  0.26404000  1.0
  C  C113  1  0.99170000  0.23200000  0.29565000  1.0
  C  C114  1  0.05350000  0.23920000  0.33702000  1.0
  C  C115  1  0.22000000  0.29150000  0.34677000  1.0
  C  C116  1  0.32580000  0.33520000  0.31530000  1.0
  C  C117  1  0.94350000  0.18940000  0.37060000  1.0
  C  C118  1  0.69370000  0.85680000  0.47616000  1.0
  C  C119  1  0.75100000  0.78640000  0.45270000  1.0
  C  C120  1  0.83430000  0.72840000  0.47404000  1.0
  C  C121  1  0.89360000  0.66540000  0.45210000  1.0
  C  C122  1  0.88250000  0.66130000  0.40830000  1.0
  C  C123  1  0.80190000  0.72000000  0.38726000  1.0
  C  C124  1  0.73200000  0.78130000  0.40929000  1.0
  C  C125  1  0.96580000  0.59200000  0.38679000  1.0
  C  C126  1  0.92900000  0.58670000  0.33883000  1.0
  C  C127  1  0.18080000  0.61180000  0.39312000  1.0
  C  C128  1  0.87800000  0.50670000  0.40482000  1.0
  C  C129  1  0.97670000  0.44350000  0.41225000  1.0
  C  C130  1  0.88650000  0.36660000  0.42571000  1.0
  C  C131  1  0.69320000  0.35140000  0.43082000  1.0
  C  C132  1  0.59440000  0.41470000  0.42400000  1.0
  C  C133  1  0.68490000  0.49210000  0.41139000  1.0
  C  C134  1  0.59850000  0.26460000  0.44126000  1.0
  C  C135  1  0.03970000  0.01750000  0.60266000  1.0
  C  C136  1  0.93840000  0.05430000  0.63645000  1.0
  C  C137  1  0.79820000  0.09920000  0.62677000  1.0
  C  C138  1  0.69480000  0.12740000  0.65847000  1.0
  C  C139  1  0.72910000  0.11060000  0.70034000  1.0
  C  C140  1  0.87170000  0.06660000  0.70998000  1.0
  C  C141  1  0.97700000  0.03970000  0.67833000  1.0
  C  C142  1  0.60880000  0.13410000  0.73679000  1.0
  C  C143  1  0.48890000  0.19920000  0.72390000  1.0
  C  C144  1  0.47560000  0.05380000  0.75010000  1.0
  C  C145  1  0.73090000  0.17310000  0.77358000  1.0
  C  C146  1  0.89870000  0.22540000  0.76404000  1.0
  C  C147  1  0.00830000  0.26800000  0.79565000  1.0
  C  C148  1  0.94650000  0.26080000  0.83702000  1.0
  C  C149  1  0.78000000  0.20850000  0.84677000  1.0
  C  C150  1  0.67420000  0.16480000  0.81530000  1.0
  C  C151  1  0.05650000  0.31060000  0.87060000  1.0
  C  C152  1  0.69370000  0.35680000  0.02384000  1.0
  C  C153  1  0.75100000  0.28640000  0.04730000  1.0
  C  C154  1  0.83430000  0.22840000  0.02596000  1.0
  C  C155  1  0.89360000  0.16540000  0.04790000  1.0
  C  C156  1  0.88250000  0.16130000  0.09170000  1.0
  C  C157  1  0.80190000  0.22000000  0.11274000  1.0
  C  C158  1  0.73200000  0.28130000  0.09071000  1.0
  C  C159  1  0.96580000  0.09200000  0.11321000  1.0
  C  C160  1  0.92900000  0.08670000  0.16117000  1.0
  C  C161  1  0.18080000  0.11180000  0.10688000  1.0
  C  C162  1  0.87800000  0.00670000  0.09518000  1.0
  C  C163  1  0.97670000  0.94350000  0.08775000  1.0
  C  C164  1  0.88650000  0.86660000  0.07429000  1.0
  C  C165  1  0.69320000  0.85140000  0.06918000  1.0
  C  C166  1  0.59440000  0.91470000  0.07600000  1.0
  C  C167  1  0.68490000  0.99210000  0.08861000  1.0
  C  C168  1  0.59850000  0.76460000  0.05874000  1.0
  C  C169  1  0.03970000  0.51750000  0.89734000  1.0
  C  C170  1  0.93840000  0.55430000  0.86355000  1.0
  C  C171  1  0.79820000  0.59920000  0.87323000  1.0
  C  C172  1  0.69480000  0.62740000  0.84153000  1.0
  C  C173  1  0.72910000  0.61060000  0.79966000  1.0
  C  C174  1  0.87170000  0.56660000  0.79002000  1.0
  C  C175  1  0.97700000  0.53970000  0.82167000  1.0
  C  C176  1  0.60880000  0.63410000  0.76321000  1.0
  C  C177  1  0.48890000  0.69920000  0.77610000  1.0
  C  C178  1  0.47560000  0.55380000  0.74990000  1.0
  C  C179  1  0.73090000  0.67310000  0.72642000  1.0
  C  C180  1  0.89870000  0.72540000  0.73596000  1.0
  C  C181  1  0.00830000  0.76800000  0.70435000  1.0
  C  C182  1  0.94650000  0.76080000  0.66298000  1.0
  C  C183  1  0.78000000  0.70850000  0.65323000  1.0
  C  C184  1  0.67420000  0.66480000  0.68470000  1.0
  C  C185  1  0.05650000  0.81060000  0.62940000  1.0
  C  C186  1  0.30630000  0.14320000  0.52384000  1.0
  C  C187  1  0.24900000  0.21360000  0.54730000  1.0
  C  C188  1  0.16570000  0.27160000  0.52596000  1.0
  C  C189  1  0.10640000  0.33460000  0.54790000  1.0
  C  C190  1  0.11750000  0.33870000  0.59170000  1.0
  C  C191  1  0.19810000  0.28000000  0.61274000  1.0
  C  C192  1  0.26800000  0.21870000  0.59071000  1.0
  C  C193  1  0.03420000  0.40800000  0.61321000  1.0
  C  C194  1  0.07100000  0.41330000  0.66117000  1.0
  C  C195  1  0.81920000  0.38820000  0.60688000  1.0
  C  C196  1  0.12200000  0.49330000  0.59518000  1.0
  C  C197  1  0.02330000  0.55650000  0.58775000  1.0
  C  C198  1  0.11350000  0.63340000  0.57429000  1.0
  C  C199  1  0.30680000  0.64860000  0.56918000  1.0
  C  C200  1  0.40560000  0.58530000  0.57600000  1.0
  C  C201  1  0.31510000  0.50790000  0.58861000  1.0
  C  C202  1  0.40150000  0.73540000  0.55874000  1.0
  C  C203  1  0.96030000  0.98250000  0.39734000  1.0
  C  C204  1  0.06160000  0.94570000  0.36355000  1.0
  C  C205  1  0.20180000  0.90080000  0.37323000  1.0
  C  C206  1  0.30520000  0.87260000  0.34153000  1.0
  C  C207  1  0.27090000  0.88940000  0.29966000  1.0
  C  C208  1  0.12830000  0.93340000  0.29002000  1.0
  C  C209  1  0.02300000  0.96030000  0.32167000  1.0
  C  C210  1  0.39120000  0.86590000  0.26321000  1.0
  C  C211  1  0.51110000  0.80080000  0.27610000  1.0
  C  C212  1  0.52440000  0.94620000  0.24990000  1.0
  C  C213  1  0.26910000  0.82690000  0.22642000  1.0
  C  C214  1  0.10130000  0.77460000  0.23596000  1.0
  C  C215  1  0.99170000  0.73200000  0.20435000  1.0
  C  C216  1  0.05350000  0.73920000  0.16298000  1.0
  C  C217  1  0.22000000  0.79150000  0.15323000  1.0
  C  C218  1  0.32580000  0.83520000  0.18470000  1.0
  C  C219  1  0.94350000  0.68940000  0.12940000  1.0
  O  O220  1  0.43960000  0.61139000  0.96465000  1.0
  O  O221  1  0.20050000  0.61656000  0.00760000  1.0
  O  O222  1  0.30240000  0.28464000  0.95466000  1.0
  O  O223  1  0.57630000  0.25272000  0.93457000  1.0
  O  O224  1  0.05240000  0.50276000  0.06866000  1.0
  O  O225  1  0.79960000  0.49643000  0.10888000  1.0
  O  O226  1  0.77050000  0.16780000  0.36616000  1.0
  O  O227  1  0.02630000  0.16913000  0.40313000  1.0
  O  O228  1  0.46720000  0.54652000  0.06413000  1.0
  O  O229  1  0.78080000  0.56560000  0.00767000  1.0
  O  O230  1  0.56040000  0.88861000  0.46465000  1.0
  O  O231  1  0.79950000  0.88344000  0.50760000  1.0
  O  O232  1  0.69760000  0.21536000  0.45466000  1.0
  O  O233  1  0.42370000  0.24728000  0.43457000  1.0
  O  O234  1  0.94760000  0.99724000  0.56866000  1.0
  O  O235  1  0.20040000  0.00357000  0.60888000  1.0
  O  O236  1  0.22950000  0.33220000  0.86616000  1.0
  O  O237  1  0.97370000  0.33087000  0.90313000  1.0
  O  O238  1  0.53280000  0.95348000  0.56413000  1.0
  O  O239  1  0.21920000  0.93440000  0.50767000  1.0
  O  O240  1  0.56040000  0.38861000  0.03535000  1.0
  O  O241  1  0.79950000  0.38344000  0.99240000  1.0
  O  O242  1  0.69760000  0.71536000  0.04534000  1.0
  O  O243  1  0.42370000  0.74728000  0.06543000  1.0
  O  O244  1  0.94760000  0.49724000  0.93134000  1.0
  O  O245  1  0.20040000  0.50357000  0.89112000  1.0
  O  O246  1  0.22950000  0.83220000  0.63384000  1.0
  O  O247  1  0.97370000  0.83087000  0.59687000  1.0
  O  O248  1  0.53280000  0.45348000  0.93587000  1.0
  O  O249  1  0.21920000  0.43440000  0.99233000  1.0
  O  O250  1  0.43960000  0.11139000  0.53535000  1.0
  O  O251  1  0.20050000  0.11656000  0.49240000  1.0
  O  O252  1  0.30240000  0.78464000  0.54534000  1.0
  O  O253  1  0.57630000  0.75272000  0.56543000  1.0
  O  O254  1  0.05240000  0.00276000  0.43134000  1.0
  O  O255  1  0.79960000  0.99643000  0.39112000  1.0
  O  O256  1  0.77050000  0.66780000  0.13384000  1.0
  O  O257  1  0.02630000  0.66913000  0.09687000  1.0
  O  O258  1  0.46720000  0.04652000  0.43587000  1.0
  O  O259  1  0.78080000  0.06560000  0.49233000  1.0
  F  F260  1  0.98220000  0.84614000  0.81848000  1.0
  F  F261  1  0.25370000  0.91898000  0.83067000  1.0
  F  F262  1  0.01680000  0.97878000  0.82181000  1.0
  F  F263  1  0.75360000  0.80833000  0.88484000  1.0
  F  F264  1  0.72510000  0.93238000  0.86844000  1.0
  F  F265  1  0.77090000  0.90163000  0.93257000  1.0
  F  F266  1  0.64950000  0.33134000  0.19708000  1.0
  F  F267  1  0.40830000  0.23605000  0.20534000  1.0
  F  F268  1  0.59360000  0.27209000  0.25698000  1.0
  F  F269  1  0.66666667  0.43203000  0.27355000  1.0
  F  F270  1  0.43170000  0.49570000  0.27166000  1.0
  F  F271  1  0.59720000  0.48886000  0.21648000  1.0
  F  F272  1  0.01780000  0.65386000  0.31848000  1.0
  F  F273  1  0.74630000  0.58102000  0.33067000  1.0
  F  F274  1  0.98320000  0.52122000  0.32181000  1.0
  F  F275  1  0.24640000  0.69167000  0.38484000  1.0
  F  F276  1  0.27490000  0.56762000  0.36844000  1.0
  F  F277  1  0.22910000  0.59837000  0.43257000  1.0
  F  F278  1  0.35050000  0.16866000  0.69708000  1.0
  F  F279  1  0.59170000  0.26395000  0.70534000  1.0
  F  F280  1  0.40640000  0.22791000  0.75698000  1.0
  F  F281  1  0.33340000  0.06797000  0.77355000  1.0
  F  F282  1  0.56830000  0.00430000  0.77166000  1.0
  F  F283  1  0.40280000  0.01114000  0.71648000  1.0
  F  F284  1  0.01780000  0.15386000  0.18152000  1.0
  F  F285  1  0.74630000  0.08102000  0.16933000  1.0
  F  F286  1  0.98320000  0.02122000  0.17819000  1.0
  F  F287  1  0.24640000  0.19167000  0.11516000  1.0
  F  F288  1  0.27490000  0.06762000  0.13156000  1.0
  F  F289  1  0.22910000  0.09837000  0.06743000  1.0
  F  F290  1  0.35050000  0.66866000  0.80292000  1.0
  F  F291  1  0.59170000  0.76395000  0.79466000  1.0
  F  F292  1  0.40640000  0.72791000  0.74302000  1.0
  F  F293  1  0.33340000  0.56797000  0.72645000  1.0
  F  F294  1  0.56830000  0.50430000  0.72834000  1.0
  F  F295  1  0.40280000  0.51114000  0.78352000  1.0
  F  F296  1  0.98220000  0.34614000  0.68152000  1.0
  F  F297  1  0.25370000  0.41898000  0.66933000  1.0
  F  F298  1  0.01680000  0.47878000  0.67819000  1.0
  F  F299  1  0.75360000  0.30833000  0.61516000  1.0
  F  F300  1  0.72510000  0.43238000  0.63156000  1.0
  F  F301  1  0.77090000  0.40163000  0.56743000  1.0
  F  F302  1  0.64950000  0.83134000  0.30292000  1.0
  F  F303  1  0.40830000  0.73605000  0.29466000  1.0
  F  F304  1  0.59360000  0.77209000  0.24302000  1.0
  F  F305  1  0.66666667  0.93203000  0.22645000  1.0
  F  F306  1  0.43170000  0.99570000  0.22834000  1.0
  F  F307  1  0.59720000  0.98886000  0.28352000  1.0
