# generated using pymatgen
data_ZnH3C3(N2O)2
_symmetry_space_group_name_H-M   'P 1'
_cell_length_a   12.96390000
_cell_length_b   13.80340000
_cell_length_c   16.83180000
_cell_angle_alpha   90.00000000
_cell_angle_beta   90.00000000
_cell_angle_gamma   90.00000000
_symmetry_Int_Tables_number   1
_chemical_formula_structural   ZnH3C3(N2O)2
_chemical_formula_sum   'Zn16 H48 C48 N64 O32'
_cell_volume   3011.98155350
_cell_formula_units_Z   16
loop_
 _symmetry_equiv_pos_site_id
 _symmetry_equiv_pos_as_xyz
  1  'x, y, z'
loop_
 _atom_site_type_symbol
 _atom_site_label
 _atom_site_symmetry_multiplicity
 _atom_site_fract_x
 _atom_site_fract_y
 _atom_site_fract_z
 _atom_site_occupancy
  Zn  Zn0  1  0.97614000  0.40741000  0.57603000  1.0
  Zn  Zn1  1  0.92641000  0.47801000  0.90385000  1.0
  Zn  Zn2  1  0.02386000  0.09259000  0.07603000  1.0
  Zn  Zn3  1  0.07359000  0.02199000  0.40385000  1.0
  Zn  Zn4  1  0.47614000  0.59259000  0.92397000  1.0
  Zn  Zn5  1  0.42641000  0.52199000  0.59615000  1.0
  Zn  Zn6  1  0.52386000  0.90741000  0.42397000  1.0
  Zn  Zn7  1  0.57359000  0.97801000  0.09615000  1.0
  Zn  Zn8  1  0.02386000  0.59259000  0.42397000  1.0
  Zn  Zn9  1  0.07359000  0.52199000  0.09615000  1.0
  Zn  Zn10  1  0.97614000  0.90741000  0.92397000  1.0
  Zn  Zn11  1  0.92641000  0.97801000  0.59615000  1.0
  Zn  Zn12  1  0.52386000  0.40741000  0.07603000  1.0
  Zn  Zn13  1  0.57359000  0.47801000  0.40385000  1.0
  Zn  Zn14  1  0.47614000  0.09259000  0.57603000  1.0
  Zn  Zn15  1  0.42641000  0.02199000  0.90385000  1.0
  H  H16  1  0.95000000  0.19200000  0.64460000  1.0
  H  H17  1  0.75100000  0.35400000  0.50340000  1.0
  H  H18  1  0.06100000  0.24300000  0.36900000  1.0
  H  H19  1  0.05800000  0.33000000  0.41050000  1.0
  H  H20  1  0.72600000  0.61800000  0.32400000  1.0
  H  H21  1  0.83800000  0.66000000  0.34600000  1.0
  H  H22  1  0.05000000  0.30800000  0.14460000  1.0
  H  H23  1  0.24900000  0.14600000  0.00340000  1.0
  H  H24  1  0.93900000  0.25700000  0.86900000  1.0
  H  H25  1  0.94200000  0.17000000  0.91050000  1.0
  H  H26  1  0.27400000  0.88200000  0.82400000  1.0
  H  H27  1  0.16200000  0.84000000  0.84600000  1.0
  H  H28  1  0.45000000  0.80800000  0.85540000  1.0
  H  H29  1  0.25100000  0.64600000  0.99660000  1.0
  H  H30  1  0.56100000  0.75700000  0.13100000  1.0
  H  H31  1  0.55800000  0.67000000  0.08950000  1.0
  H  H32  1  0.22600000  0.38200000  0.17600000  1.0
  H  H33  1  0.33800000  0.34000000  0.15400000  1.0
  H  H34  1  0.55000000  0.69200000  0.35540000  1.0
  H  H35  1  0.74900000  0.85400000  0.49660000  1.0
  H  H36  1  0.43900000  0.74300000  0.63100000  1.0
  H  H37  1  0.44200000  0.83000000  0.58950000  1.0
  H  H38  1  0.77400000  0.11800000  0.67600000  1.0
  H  H39  1  0.66200000  0.16000000  0.65400000  1.0
  H  H40  1  0.05000000  0.80800000  0.35540000  1.0
  H  H41  1  0.24900000  0.64600000  0.49660000  1.0
  H  H42  1  0.93900000  0.75700000  0.63100000  1.0
  H  H43  1  0.94200000  0.67000000  0.58950000  1.0
  H  H44  1  0.27400000  0.38200000  0.67600000  1.0
  H  H45  1  0.16200000  0.34000000  0.65400000  1.0
  H  H46  1  0.95000000  0.69200000  0.85540000  1.0
  H  H47  1  0.75100000  0.85400000  0.99660000  1.0
  H  H48  1  0.06100000  0.74300000  0.13100000  1.0
  H  H49  1  0.05800000  0.83000000  0.08950000  1.0
  H  H50  1  0.72600000  0.11800000  0.17600000  1.0
  H  H51  1  0.83800000  0.16000000  0.15400000  1.0
  H  H52  1  0.55000000  0.19200000  0.14460000  1.0
  H  H53  1  0.74900000  0.35400000  0.00340000  1.0
  H  H54  1  0.43900000  0.24300000  0.86900000  1.0
  H  H55  1  0.44200000  0.33000000  0.91050000  1.0
  H  H56  1  0.77400000  0.61800000  0.82400000  1.0
  H  H57  1  0.66200000  0.66000000  0.84600000  1.0
  H  H58  1  0.45000000  0.30800000  0.64460000  1.0
  H  H59  1  0.25100000  0.14600000  0.50340000  1.0
  H  H60  1  0.56100000  0.25700000  0.36900000  1.0
  H  H61  1  0.55800000  0.17000000  0.41050000  1.0
  H  H62  1  0.22600000  0.88200000  0.32400000  1.0
  H  H63  1  0.33800000  0.84000000  0.34600000  1.0
  C  C64  1  0.97220000  0.40972000  0.74606000  1.0
  C  C65  1  0.92270000  0.50699000  0.72252000  1.0
  C  C66  1  0.02790000  0.22036000  0.47993000  1.0
  C  C67  1  0.97110000  0.18820000  0.59413000  1.0
  C  C68  1  0.79790000  0.54791000  0.41063000  1.0
  C  C69  1  0.77790000  0.41895000  0.47697000  1.0
  C  C70  1  0.02780000  0.09028000  0.24606000  1.0
  C  C71  1  0.07730000  0.99301000  0.22252000  1.0
  C  C72  1  0.97210000  0.27964000  0.97993000  1.0
  C  C73  1  0.02890000  0.31180000  0.09413000  1.0
  C  C74  1  0.20210000  0.95209000  0.91063000  1.0
  C  C75  1  0.22210000  0.08105000  0.97697000  1.0
  C  C76  1  0.47220000  0.59028000  0.75394000  1.0
  C  C77  1  0.42270000  0.49301000  0.77748000  1.0
  C  C78  1  0.52790000  0.77964000  0.02007000  1.0
  C  C79  1  0.47110000  0.81180000  0.90587000  1.0
  C  C80  1  0.29790000  0.45209000  0.08937000  1.0
  C  C81  1  0.27790000  0.58105000  0.02303000  1.0
  C  C82  1  0.52780000  0.90972000  0.25394000  1.0
  C  C83  1  0.57730000  0.00699000  0.27748000  1.0
  C  C84  1  0.47210000  0.72036000  0.52007000  1.0
  C  C85  1  0.52890000  0.68820000  0.40587000  1.0
  C  C86  1  0.70210000  0.04791000  0.58937000  1.0
  C  C87  1  0.72210000  0.91895000  0.52303000  1.0
  C  C88  1  0.02780000  0.59028000  0.25394000  1.0
  C  C89  1  0.07730000  0.49301000  0.27748000  1.0
  C  C90  1  0.97210000  0.77964000  0.52007000  1.0
  C  C91  1  0.02890000  0.81180000  0.40587000  1.0
  C  C92  1  0.20210000  0.45209000  0.58937000  1.0
  C  C93  1  0.22210000  0.58105000  0.52303000  1.0
  C  C94  1  0.97220000  0.90972000  0.75394000  1.0
  C  C95  1  0.92270000  0.00699000  0.77748000  1.0
  C  C96  1  0.02790000  0.72036000  0.02007000  1.0
  C  C97  1  0.97110000  0.68820000  0.90587000  1.0
  C  C98  1  0.79790000  0.04791000  0.08937000  1.0
  C  C99  1  0.77790000  0.91895000  0.02303000  1.0
  C  C100  1  0.52780000  0.40972000  0.24606000  1.0
  C  C101  1  0.57730000  0.50699000  0.22252000  1.0
  C  C102  1  0.47210000  0.22036000  0.97993000  1.0
  C  C103  1  0.52890000  0.18820000  0.09413000  1.0
  C  C104  1  0.70210000  0.54791000  0.91063000  1.0
  C  C105  1  0.72210000  0.41895000  0.97697000  1.0
  C  C106  1  0.47220000  0.09028000  0.74606000  1.0
  C  C107  1  0.42270000  0.99301000  0.72252000  1.0
  C  C108  1  0.52790000  0.27964000  0.47993000  1.0
  C  C109  1  0.47110000  0.31180000  0.59413000  1.0
  C  C110  1  0.29790000  0.95209000  0.41063000  1.0
  C  C111  1  0.27790000  0.08105000  0.47697000  1.0
  N  N112  1  0.99502000  0.26341000  0.54715000  1.0
  N  N113  1  0.98706000  0.10405000  0.56052000  1.0
  N  N114  1  0.02496000  0.12395000  0.48503000  1.0
  N  N115  1  0.06650000  0.26911000  0.41664000  1.0
  N  N116  1  0.87291000  0.44663000  0.49093000  1.0
  N  N117  1  0.88679000  0.53165000  0.44774000  1.0
  N  N118  1  0.72658000  0.47859000  0.42713000  1.0
  N  N119  1  0.77900000  0.62660000  0.36440000  1.0
  N  N120  1  0.00498000  0.23659000  0.04715000  1.0
  N  N121  1  0.01294000  0.39595000  0.06052000  1.0
  N  N122  1  0.97504000  0.37605000  0.98503000  1.0
  N  N123  1  0.93350000  0.23089000  0.91664000  1.0
  N  N124  1  0.12709000  0.05337000  0.99093000  1.0
  N  N125  1  0.11321000  0.96835000  0.94774000  1.0
  N  N126  1  0.27342000  0.02141000  0.92713000  1.0
  N  N127  1  0.22100000  0.87340000  0.86440000  1.0
  N  N128  1  0.49502000  0.73659000  0.95285000  1.0
  N  N129  1  0.48706000  0.89595000  0.93948000  1.0
  N  N130  1  0.52496000  0.87605000  0.01497000  1.0
  N  N131  1  0.56650000  0.73089000  0.08336000  1.0
  N  N132  1  0.37291000  0.55337000  0.00907000  1.0
  N  N133  1  0.38679000  0.46835000  0.05226000  1.0
  N  N134  1  0.22658000  0.52141000  0.07287000  1.0
  N  N135  1  0.27900000  0.37340000  0.13560000  1.0
  N  N136  1  0.50498000  0.76341000  0.45285000  1.0
  N  N137  1  0.51294000  0.60405000  0.43948000  1.0
  N  N138  1  0.47504000  0.62395000  0.51497000  1.0
  N  N139  1  0.43350000  0.76911000  0.58336000  1.0
  N  N140  1  0.62709000  0.94663000  0.50907000  1.0
  N  N141  1  0.61321000  0.03165000  0.55226000  1.0
  N  N142  1  0.77342000  0.97859000  0.57287000  1.0
  N  N143  1  0.72100000  0.12660000  0.63560000  1.0
  N  N144  1  0.00498000  0.73659000  0.45285000  1.0
  N  N145  1  0.01294000  0.89595000  0.43948000  1.0
  N  N146  1  0.97504000  0.87605000  0.51497000  1.0
  N  N147  1  0.93350000  0.73089000  0.58336000  1.0
  N  N148  1  0.12709000  0.55337000  0.50907000  1.0
  N  N149  1  0.11321000  0.46835000  0.55226000  1.0
  N  N150  1  0.27342000  0.52141000  0.57287000  1.0
  N  N151  1  0.22100000  0.37340000  0.63560000  1.0
  N  N152  1  0.99502000  0.76341000  0.95285000  1.0
  N  N153  1  0.98706000  0.60405000  0.93948000  1.0
  N  N154  1  0.02496000  0.62395000  0.01497000  1.0
  N  N155  1  0.06650000  0.76911000  0.08336000  1.0
  N  N156  1  0.87291000  0.94663000  0.00907000  1.0
  N  N157  1  0.88679000  0.03165000  0.05226000  1.0
  N  N158  1  0.72658000  0.97859000  0.07287000  1.0
  N  N159  1  0.77900000  0.12660000  0.13560000  1.0
  N  N160  1  0.50498000  0.26341000  0.04715000  1.0
  N  N161  1  0.51294000  0.10405000  0.06052000  1.0
  N  N162  1  0.47504000  0.12395000  0.98503000  1.0
  N  N163  1  0.43350000  0.26911000  0.91664000  1.0
  N  N164  1  0.62709000  0.44663000  0.99093000  1.0
  N  N165  1  0.61321000  0.53165000  0.94774000  1.0
  N  N166  1  0.77342000  0.47859000  0.92713000  1.0
  N  N167  1  0.72100000  0.62660000  0.86440000  1.0
  N  N168  1  0.49502000  0.23659000  0.54715000  1.0
  N  N169  1  0.48706000  0.39595000  0.56052000  1.0
  N  N170  1  0.52496000  0.37605000  0.48503000  1.0
  N  N171  1  0.56650000  0.23089000  0.41664000  1.0
  N  N172  1  0.37291000  0.05337000  0.49093000  1.0
  N  N173  1  0.38679000  0.96835000  0.44774000  1.0
  N  N174  1  0.22658000  0.02141000  0.42713000  1.0
  N  N175  1  0.27900000  0.87340000  0.36440000  1.0
  O  O176  1  0.00069000  0.35518000  0.69134000  1.0
  O  O177  1  0.91606000  0.52312000  0.64959000  1.0
  O  O178  1  0.89425000  0.55902000  0.77868000  1.0
  O  O179  1  0.98248000  0.39139000  0.81847000  1.0
  O  O180  1  0.99931000  0.14482000  0.19134000  1.0
  O  O181  1  0.08394000  0.97688000  0.14959000  1.0
  O  O182  1  0.10575000  0.94098000  0.27868000  1.0
  O  O183  1  0.01752000  0.10861000  0.31847000  1.0
  O  O184  1  0.50069000  0.64482000  0.80866000  1.0
  O  O185  1  0.41606000  0.47688000  0.85041000  1.0
  O  O186  1  0.39425000  0.44098000  0.72132000  1.0
  O  O187  1  0.48248000  0.60861000  0.68153000  1.0
  O  O188  1  0.49931000  0.85518000  0.30866000  1.0
  O  O189  1  0.58394000  0.02312000  0.35041000  1.0
  O  O190  1  0.60575000  0.05902000  0.22132000  1.0
  O  O191  1  0.51752000  0.89139000  0.18153000  1.0
  O  O192  1  0.99931000  0.64482000  0.30866000  1.0
  O  O193  1  0.08394000  0.47688000  0.35041000  1.0
  O  O194  1  0.10575000  0.44098000  0.22132000  1.0
  O  O195  1  0.01752000  0.60861000  0.18153000  1.0
  O  O196  1  0.00069000  0.85518000  0.80866000  1.0
  O  O197  1  0.91606000  0.02312000  0.85041000  1.0
  O  O198  1  0.89425000  0.05902000  0.72132000  1.0
  O  O199  1  0.98248000  0.89139000  0.68153000  1.0
  O  O200  1  0.49931000  0.35518000  0.19134000  1.0
  O  O201  1  0.58394000  0.52312000  0.14959000  1.0
  O  O202  1  0.60575000  0.55902000  0.27868000  1.0
  O  O203  1  0.51752000  0.39139000  0.31847000  1.0
  O  O204  1  0.50069000  0.14482000  0.69134000  1.0
  O  O205  1  0.41606000  0.97688000  0.64959000  1.0
  O  O206  1  0.39425000  0.94098000  0.77868000  1.0
  O  O207  1  0.48248000  0.10861000  0.81847000  1.0
