# generated using pymatgen
data_Mn3H25C42S3O19
_symmetry_space_group_name_H-M   'P 1'
_cell_length_a   15.99950000
_cell_length_b   18.18520000
_cell_length_c   24.81990000
_cell_angle_alpha   90.00000000
_cell_angle_beta   102.91700000
_cell_angle_gamma   90.00000000
_symmetry_Int_Tables_number   1
_chemical_formula_structural   Mn3H25C42S3O19
_chemical_formula_sum   'Mn12 H100 C168 S12 O76'
_cell_volume   7038.71237312
_cell_formula_units_Z   4
loop_
 _symmetry_equiv_pos_site_id
 _symmetry_equiv_pos_as_xyz
  1  'x, y, z'
loop_
 _atom_site_type_symbol
 _atom_site_label
 _atom_site_symmetry_multiplicity
 _atom_site_fract_x
 _atom_site_fract_y
 _atom_site_fract_z
 _atom_site_occupancy
  Mn  Mn0  1  0.44614000  0.92938000  0.52057000  1.0
  Mn  Mn1  1  0.59070000  0.88112000  0.42317000  1.0
  Mn  Mn2  1  0.53544000  0.75007000  0.51480000  1.0
  Mn  Mn3  1  0.05386000  0.42938000  0.97943000  1.0
  Mn  Mn4  1  0.90930000  0.38112000  0.07683000  1.0
  Mn  Mn5  1  0.96456000  0.25007000  0.98520000  1.0
  Mn  Mn6  1  0.55386000  0.07062000  0.47943000  1.0
  Mn  Mn7  1  0.40930000  0.11888000  0.57683000  1.0
  Mn  Mn8  1  0.46456000  0.24993000  0.48520000  1.0
  Mn  Mn9  1  0.94614000  0.57062000  0.02057000  1.0
  Mn  Mn10  1  0.09070000  0.61888000  0.92317000  1.0
  Mn  Mn11  1  0.03544000  0.74993000  0.01480000  1.0
  H  H12  1  0.58740000  0.87750000  0.51940000  1.0
  H  H13  1  0.25410000  0.89290000  0.52370000  1.0
  H  H14  1  0.16880000  0.79520000  0.53520000  1.0
  H  H15  1  0.16810000  0.86270000  0.68750000  1.0
  H  H16  1  0.25700000  0.96110000  0.67790000  1.0
  H  H17  1  0.01050000  0.78960000  0.51450000  1.0
  H  H18  1  0.86730000  0.81160000  0.47280000  1.0
  H  H19  1  0.79970000  0.74740000  0.61090000  1.0
  H  H20  1  0.94410000  0.73640000  0.65580000  1.0
  H  H21  1  0.44670000  0.91850000  0.68780000  1.0
  H  H22  1  0.44120000  0.91140000  0.78080000  1.0
  H  H23  1  0.53110000  0.70410000  0.78670000  1.0
  H  H24  1  0.53720000  0.71210000  0.69360000  1.0
  H  H25  1  0.63340000  0.87720000  0.91270000  1.0
  H  H26  1  0.77240000  0.84130000  0.95410000  1.0
  H  H27  1  0.70560000  0.62900000  0.92290000  1.0
  H  H28  1  0.56410000  0.66550000  0.88580000  1.0
  H  H29  1  0.67240000  0.09380000  0.68960000  1.0
  H  H30  1  0.81790000  0.08570000  0.72950000  1.0
  H  H31  1  0.84020000  0.92970000  0.61890000  1.0
  H  H32  1  0.69570000  0.94140000  0.57760000  1.0
  H  H33  1  0.93970000  0.99490000  0.81710000  1.0
  H  H34  1  0.97520000  0.90670000  0.88570000  1.0
  H  H35  1  0.03530000  0.76570000  0.77690000  1.0
  H  H36  1  0.00140000  0.85490000  0.70800000  1.0
  H  H37  1  0.91260000  0.37750000  0.98060000  1.0
  H  H38  1  0.24590000  0.39290000  0.97630000  1.0
  H  H39  1  0.33120000  0.29520000  0.96480000  1.0
  H  H40  1  0.33190000  0.36270000  0.81250000  1.0
  H  H41  1  0.24300000  0.46110000  0.82210000  1.0
  H  H42  1  0.48950000  0.28960000  0.98550000  1.0
  H  H43  1  0.63270000  0.31160000  0.02720000  1.0
  H  H44  1  0.70030000  0.24740000  0.88910000  1.0
  H  H45  1  0.55590000  0.23640000  0.84420000  1.0
  H  H46  1  0.05330000  0.41850000  0.81220000  1.0
  H  H47  1  0.05880000  0.41140000  0.71920000  1.0
  H  H48  1  0.96890000  0.20410000  0.71330000  1.0
  H  H49  1  0.96280000  0.21210000  0.80640000  1.0
  H  H50  1  0.86660000  0.37720000  0.58730000  1.0
  H  H51  1  0.72760000  0.34130000  0.54590000  1.0
  H  H52  1  0.79440000  0.12900000  0.57710000  1.0
  H  H53  1  0.93590000  0.16550000  0.61420000  1.0
  H  H54  1  0.82760000  0.59380000  0.81040000  1.0
  H  H55  1  0.68210000  0.58570000  0.77050000  1.0
  H  H56  1  0.65980000  0.42970000  0.88110000  1.0
  H  H57  1  0.80430000  0.44140000  0.92240000  1.0
  H  H58  1  0.56030000  0.49490000  0.68290000  1.0
  H  H59  1  0.52480000  0.40670000  0.61430000  1.0
  H  H60  1  0.46470000  0.26570000  0.72310000  1.0
  H  H61  1  0.49860000  0.35490000  0.79200000  1.0
  H  H62  1  0.41260000  0.12250000  0.48060000  1.0
  H  H63  1  0.74590000  0.10710000  0.47630000  1.0
  H  H64  1  0.83120000  0.20480000  0.46480000  1.0
  H  H65  1  0.83190000  0.13730000  0.31250000  1.0
  H  H66  1  0.74300000  0.03890000  0.32210000  1.0
  H  H67  1  0.98950000  0.21040000  0.48550000  1.0
  H  H68  1  0.13270000  0.18840000  0.52720000  1.0
  H  H69  1  0.20030000  0.25260000  0.38910000  1.0
  H  H70  1  0.05590000  0.26360000  0.34420000  1.0
  H  H71  1  0.55330000  0.08150000  0.31220000  1.0
  H  H72  1  0.55880000  0.08860000  0.21920000  1.0
  H  H73  1  0.46890000  0.29590000  0.21330000  1.0
  H  H74  1  0.46280000  0.28790000  0.30640000  1.0
  H  H75  1  0.36660000  0.12280000  0.08730000  1.0
  H  H76  1  0.22760000  0.15870000  0.04590000  1.0
  H  H77  1  0.29440000  0.37100000  0.07710000  1.0
  H  H78  1  0.43590000  0.33450000  0.11420000  1.0
  H  H79  1  0.32760000  0.90620000  0.31040000  1.0
  H  H80  1  0.18210000  0.91430000  0.27050000  1.0
  H  H81  1  0.15980000  0.07030000  0.38110000  1.0
  H  H82  1  0.30430000  0.05860000  0.42240000  1.0
  H  H83  1  0.06030000  0.00510000  0.18290000  1.0
  H  H84  1  0.02480000  0.09330000  0.11430000  1.0
  H  H85  1  0.96470000  0.23430000  0.22310000  1.0
  H  H86  1  0.99860000  0.14510000  0.29200000  1.0
  H  H87  1  0.08740000  0.62250000  0.01940000  1.0
  H  H88  1  0.75410000  0.60710000  0.02370000  1.0
  H  H89  1  0.66880000  0.70480000  0.03520000  1.0
  H  H90  1  0.66810000  0.63730000  0.18750000  1.0
  H  H91  1  0.75700000  0.53890000  0.17790000  1.0
  H  H92  1  0.51050000  0.71040000  0.01450000  1.0
  H  H93  1  0.36730000  0.68840000  0.97280000  1.0
  H  H94  1  0.29970000  0.75260000  0.11090000  1.0
  H  H95  1  0.44410000  0.76360000  0.15580000  1.0
  H  H96  1  0.94670000  0.58150000  0.18780000  1.0
  H  H97  1  0.94120000  0.58860000  0.28080000  1.0
  H  H98  1  0.03110000  0.79590000  0.28670000  1.0
  H  H99  1  0.03720000  0.78790000  0.19360000  1.0
  H  H100  1  0.13340000  0.62280000  0.41270000  1.0
  H  H101  1  0.27240000  0.65870000  0.45410000  1.0
  H  H102  1  0.20560000  0.87100000  0.42290000  1.0
  H  H103  1  0.06410000  0.83450000  0.38580000  1.0
  H  H104  1  0.17240000  0.40620000  0.18960000  1.0
  H  H105  1  0.31790000  0.41430000  0.22950000  1.0
  H  H106  1  0.34020000  0.57030000  0.11890000  1.0
  H  H107  1  0.19570000  0.55860000  0.07760000  1.0
  H  H108  1  0.43970000  0.50510000  0.31710000  1.0
  H  H109  1  0.47520000  0.59330000  0.38570000  1.0
  H  H110  1  0.53530000  0.73430000  0.27690000  1.0
  H  H111  1  0.50140000  0.64510000  0.20800000  1.0
  C  C112  1  0.32170000  0.00050000  0.59112000  1.0
  C  C113  1  0.26450000  0.93650000  0.59917000  1.0
  C  C114  1  0.23750000  0.88700000  0.55699000  1.0
  C  C115  1  0.18620000  0.82880000  0.56379000  1.0
  C  C116  1  0.16060000  0.81980000  0.61233000  1.0
  C  C117  1  0.18620000  0.86880000  0.65470000  1.0
  C  C118  1  0.23910000  0.92810000  0.64905000  1.0
  C  C119  1  0.99090000  0.76230000  0.58830000  1.0
  C  C120  1  0.96850000  0.78320000  0.53450000  1.0
  C  C121  1  0.88250000  0.79510000  0.50920000  1.0
  C  C122  1  0.81930000  0.78200000  0.53883000  1.0
  C  C123  1  0.84210000  0.75830000  0.59190000  1.0
  C  C124  1  0.92870000  0.74990000  0.61871000  1.0
  C  C125  1  0.72500000  0.79210000  0.51121000  1.0
  C  C126  1  0.49590000  0.82170000  0.62162000  1.0
  C  C127  1  0.49300000  0.81680000  0.68188000  1.0
  C  C128  1  0.46410000  0.87570000  0.70764000  1.0
  C  C129  1  0.46070000  0.87170000  0.76337000  1.0
  C  C130  1  0.48690000  0.80750000  0.79200000  1.0
  C  C131  1  0.51480000  0.74720000  0.76686000  1.0
  C  C132  1  0.51820000  0.75190000  0.71106000  1.0
  C  C133  1  0.58640000  0.77370000  0.89540000  1.0
  C  C134  1  0.64810000  0.82770000  0.91561000  1.0
  C  C135  1  0.73090000  0.80630000  0.93984000  1.0
  C  C136  1  0.75150000  0.73090000  0.94263000  1.0
  C  C137  1  0.69070000  0.67850000  0.92177000  1.0
  C  C138  1  0.60620000  0.70040000  0.89873000  1.0
  C  C139  1  0.84220000  0.70640000  0.96958000  1.0
  C  C140  1  0.57760000  0.03080000  0.60033000  1.0
  C  C141  1  0.67100000  0.02020000  0.62847000  1.0
  C  C142  1  0.70690000  0.06200000  0.67484000  1.0
  C  C143  1  0.79350000  0.05660000  0.69928000  1.0
  C  C144  1  0.84260000  0.00700000  0.67779000  1.0
  C  C145  1  0.80650000  0.96340000  0.63259000  1.0
  C  C146  1  0.72020000  0.97040000  0.60792000  1.0
  C  C147  1  0.97130000  0.93340000  0.75663000  1.0
  C  C148  1  0.96040000  0.94920000  0.80930000  1.0
  C  C149  1  0.98070000  0.89600000  0.85000000  1.0
  C  C150  1  0.00900000  0.82750000  0.83840000  1.0
  C  C151  1  0.01680000  0.81200000  0.78519000  1.0
  C  C152  1  0.99700000  0.86550000  0.74390000  1.0
  C  C153  1  0.03310000  0.77070000  0.88300000  1.0
  C  C154  1  0.17830000  0.50050000  0.90888000  1.0
  C  C155  1  0.23550000  0.43650000  0.90083000  1.0
  C  C156  1  0.26250000  0.38700000  0.94301000  1.0
  C  C157  1  0.31380000  0.32880000  0.93621000  1.0
  C  C158  1  0.33940000  0.31980000  0.88767000  1.0
  C  C159  1  0.31380000  0.36880000  0.84530000  1.0
  C  C160  1  0.26090000  0.42810000  0.85095000  1.0
  C  C161  1  0.50910000  0.26230000  0.91170000  1.0
  C  C162  1  0.53150000  0.28320000  0.96550000  1.0
  C  C163  1  0.61750000  0.29510000  0.99080000  1.0
  C  C164  1  0.68070000  0.28200000  0.96117000  1.0
  C  C165  1  0.65790000  0.25830000  0.90810000  1.0
  C  C166  1  0.57130000  0.24990000  0.88129000  1.0
  C  C167  1  0.77500000  0.29210000  0.98879000  1.0
  C  C168  1  0.00410000  0.32170000  0.87838000  1.0
  C  C169  1  0.00700000  0.31680000  0.81812000  1.0
  C  C170  1  0.03590000  0.37570000  0.79236000  1.0
  C  C171  1  0.03930000  0.37170000  0.73663000  1.0
  C  C172  1  0.01310000  0.30750000  0.70800000  1.0
  C  C173  1  0.98520000  0.24720000  0.73314000  1.0
  C  C174  1  0.98180000  0.25190000  0.78894000  1.0
  C  C175  1  0.91360000  0.27370000  0.60460000  1.0
  C  C176  1  0.85190000  0.32770000  0.58439000  1.0
  C  C177  1  0.76910000  0.30630000  0.56016000  1.0
  C  C178  1  0.74850000  0.23090000  0.55737000  1.0
  C  C179  1  0.80930000  0.17850000  0.57823000  1.0
  C  C180  1  0.89380000  0.20040000  0.60127000  1.0
  C  C181  1  0.65780000  0.20640000  0.53042000  1.0
  C  C182  1  0.92240000  0.53080000  0.89967000  1.0
  C  C183  1  0.82900000  0.52020000  0.87153000  1.0
  C  C184  1  0.79310000  0.56200000  0.82516000  1.0
  C  C185  1  0.70650000  0.55660000  0.80072000  1.0
  C  C186  1  0.65740000  0.50700000  0.82221000  1.0
  C  C187  1  0.69350000  0.46340000  0.86741000  1.0
  C  C188  1  0.77980000  0.47040000  0.89208000  1.0
  C  C189  1  0.52870000  0.43340000  0.74337000  1.0
  C  C190  1  0.53960000  0.44920000  0.69070000  1.0
  C  C191  1  0.51930000  0.39600000  0.65000000  1.0
  C  C192  1  0.49100000  0.32750000  0.66160000  1.0
  C  C193  1  0.48320000  0.31200000  0.71481000  1.0
  C  C194  1  0.50300000  0.36550000  0.75610000  1.0
  C  C195  1  0.46690000  0.27070000  0.61700000  1.0
  C  C196  1  0.67830000  0.99950000  0.40888000  1.0
  C  C197  1  0.73550000  0.06350000  0.40083000  1.0
  C  C198  1  0.76250000  0.11300000  0.44301000  1.0
  C  C199  1  0.81380000  0.17120000  0.43621000  1.0
  C  C200  1  0.83940000  0.18020000  0.38767000  1.0
  C  C201  1  0.81380000  0.13120000  0.34530000  1.0
  C  C202  1  0.76090000  0.07190000  0.35095000  1.0
  C  C203  1  0.00910000  0.23770000  0.41170000  1.0
  C  C204  1  0.03150000  0.21680000  0.46550000  1.0
  C  C205  1  0.11750000  0.20490000  0.49080000  1.0
  C  C206  1  0.18070000  0.21800000  0.46117000  1.0
  C  C207  1  0.15790000  0.24170000  0.40810000  1.0
  C  C208  1  0.07130000  0.25010000  0.38129000  1.0
  C  C209  1  0.27500000  0.20790000  0.48879000  1.0
  C  C210  1  0.50410000  0.17830000  0.37838000  1.0
  C  C211  1  0.50700000  0.18320000  0.31812000  1.0
  C  C212  1  0.53590000  0.12430000  0.29236000  1.0
  C  C213  1  0.53930000  0.12830000  0.23663000  1.0
  C  C214  1  0.51310000  0.19250000  0.20800000  1.0
  C  C215  1  0.48520000  0.25280000  0.23314000  1.0
  C  C216  1  0.48180000  0.24810000  0.28894000  1.0
  C  C217  1  0.41360000  0.22630000  0.10460000  1.0
  C  C218  1  0.35190000  0.17230000  0.08439000  1.0
  C  C219  1  0.26910000  0.19370000  0.06016000  1.0
  C  C220  1  0.24850000  0.26910000  0.05737000  1.0
  C  C221  1  0.30930000  0.32150000  0.07823000  1.0
  C  C222  1  0.39380000  0.29960000  0.10127000  1.0
  C  C223  1  0.15780000  0.29360000  0.03042000  1.0
  C  C224  1  0.42240000  0.96920000  0.39967000  1.0
  C  C225  1  0.32900000  0.97980000  0.37153000  1.0
  C  C226  1  0.29310000  0.93800000  0.32516000  1.0
  C  C227  1  0.20650000  0.94340000  0.30072000  1.0
  C  C228  1  0.15740000  0.99300000  0.32221000  1.0
  C  C229  1  0.19350000  0.03660000  0.36741000  1.0
  C  C230  1  0.27980000  0.02960000  0.39208000  1.0
  C  C231  1  0.02870000  0.06660000  0.24337000  1.0
  C  C232  1  0.03960000  0.05080000  0.19070000  1.0
  C  C233  1  0.01930000  0.10400000  0.15000000  1.0
  C  C234  1  0.99100000  0.17250000  0.16160000  1.0
  C  C235  1  0.98320000  0.18800000  0.21481000  1.0
  C  C236  1  0.00300000  0.13450000  0.25610000  1.0
  C  C237  1  0.96690000  0.22930000  0.11700000  1.0
  C  C238  1  0.82170000  0.49950000  0.09112000  1.0
  C  C239  1  0.76450000  0.56350000  0.09917000  1.0
  C  C240  1  0.73750000  0.61300000  0.05699000  1.0
  C  C241  1  0.68620000  0.67120000  0.06379000  1.0
  C  C242  1  0.66060000  0.68020000  0.11233000  1.0
  C  C243  1  0.68620000  0.63120000  0.15470000  1.0
  C  C244  1  0.73910000  0.57190000  0.14905000  1.0
  C  C245  1  0.49090000  0.73770000  0.08830000  1.0
  C  C246  1  0.46850000  0.71680000  0.03450000  1.0
  C  C247  1  0.38250000  0.70490000  0.00920000  1.0
  C  C248  1  0.31930000  0.71800000  0.03883000  1.0
  C  C249  1  0.34210000  0.74170000  0.09190000  1.0
  C  C250  1  0.42870000  0.75010000  0.11871000  1.0
  C  C251  1  0.22500000  0.70790000  0.01121000  1.0
  C  C252  1  0.99590000  0.67830000  0.12162000  1.0
  C  C253  1  0.99300000  0.68320000  0.18188000  1.0
  C  C254  1  0.96410000  0.62430000  0.20764000  1.0
  C  C255  1  0.96070000  0.62830000  0.26337000  1.0
  C  C256  1  0.98690000  0.69250000  0.29200000  1.0
  C  C257  1  0.01480000  0.75280000  0.26686000  1.0
  C  C258  1  0.01820000  0.74810000  0.21106000  1.0
  C  C259  1  0.08640000  0.72630000  0.39540000  1.0
  C  C260  1  0.14810000  0.67230000  0.41561000  1.0
  C  C261  1  0.23090000  0.69370000  0.43984000  1.0
  C  C262  1  0.25150000  0.76910000  0.44263000  1.0
  C  C263  1  0.19070000  0.82150000  0.42177000  1.0
  C  C264  1  0.10620000  0.79960000  0.39873000  1.0
  C  C265  1  0.34220000  0.79360000  0.46958000  1.0
  C  C266  1  0.07760000  0.46920000  0.10033000  1.0
  C  C267  1  0.17100000  0.47980000  0.12847000  1.0
  C  C268  1  0.20690000  0.43800000  0.17484000  1.0
  C  C269  1  0.29350000  0.44340000  0.19928000  1.0
  C  C270  1  0.34260000  0.49300000  0.17779000  1.0
  C  C271  1  0.30650000  0.53660000  0.13259000  1.0
  C  C272  1  0.22020000  0.52960000  0.10792000  1.0
  C  C273  1  0.47130000  0.56660000  0.25663000  1.0
  C  C274  1  0.46040000  0.55080000  0.30930000  1.0
  C  C275  1  0.48070000  0.60400000  0.35000000  1.0
  C  C276  1  0.50900000  0.67250000  0.33840000  1.0
  C  C277  1  0.51680000  0.68800000  0.28519000  1.0
  C  C278  1  0.49700000  0.63450000  0.24390000  1.0
  C  C279  1  0.53310000  0.72930000  0.38300000  1.0
  S  S280  1  0.09855000  0.74178000  0.62098000  1.0
  S  S281  1  0.48144000  0.80093000  0.86260000  1.0
  S  S282  1  0.95446000  0.00258000  0.70564000  1.0
  S  S283  1  0.40145000  0.24178000  0.87902000  1.0
  S  S284  1  0.01856000  0.30093000  0.63740000  1.0
  S  S285  1  0.54554000  0.50258000  0.79436000  1.0
  S  S286  1  0.90145000  0.25822000  0.37902000  1.0
  S  S287  1  0.51856000  0.19907000  0.13740000  1.0
  S  S288  1  0.04554000  0.99742000  0.29436000  1.0
  S  S289  1  0.59855000  0.75822000  0.12098000  1.0
  S  S290  1  0.98144000  0.69907000  0.36260000  1.0
  S  S291  1  0.45446000  0.49742000  0.20564000  1.0
  O  O292  1  0.46072000  0.87809000  0.59708000  1.0
  O  O293  1  0.85373000  0.63772000  0.96928000  1.0
  O  O294  1  0.53699000  0.86308000  0.49104000  1.0
  O  O295  1  0.55362000  0.00197000  0.55219000  1.0
  O  O296  1  0.35313000  0.00168000  0.54883000  1.0
  O  O297  1  0.05600000  0.70850000  0.86898000  1.0
  O  O298  1  0.70835000  0.83110000  0.46863000  1.0
  O  O299  1  0.53022000  0.06763000  0.62384000  1.0
  O  O300  1  0.33445000  0.05156000  0.62591000  1.0
  O  O301  1  0.02950000  0.78820000  0.93148000  1.0
  O  O302  1  0.67376000  0.76009000  0.53476000  1.0
  O  O303  1  0.89590000  0.75413000  0.99045000  1.0
  O  O304  1  0.53258000  0.77201000  0.60128000  1.0
  O  O305  1  0.12440000  0.68238000  0.59034000  1.0
  O  O306  1  0.10280000  0.73250000  0.67983000  1.0
  O  O307  1  0.42550000  0.74110000  0.86884000  1.0
  O  O308  1  0.46440000  0.87270000  0.88122000  1.0
  O  O309  1  0.97940000  0.07210000  0.73271000  1.0
  O  O310  1  0.99490000  0.97810000  0.66206000  1.0
  O  O311  1  0.03928000  0.37809000  0.90292000  1.0
  O  O312  1  0.64627000  0.13772000  0.53072000  1.0
  O  O313  1  0.96301000  0.36308000  0.00896000  1.0
  O  O314  1  0.94638000  0.50197000  0.94781000  1.0
  O  O315  1  0.14687000  0.50168000  0.95117000  1.0
  O  O316  1  0.44400000  0.20850000  0.63102000  1.0
  O  O317  1  0.79165000  0.33110000  0.03137000  1.0
  O  O318  1  0.96978000  0.56763000  0.87616000  1.0
  O  O319  1  0.16555000  0.55156000  0.87409000  1.0
  O  O320  1  0.47050000  0.28820000  0.56852000  1.0
  O  O321  1  0.82624000  0.26009000  0.96524000  1.0
  O  O322  1  0.60410000  0.25413000  0.50955000  1.0
  O  O323  1  0.96742000  0.27201000  0.89872000  1.0
  O  O324  1  0.37560000  0.18238000  0.90966000  1.0
  O  O325  1  0.39720000  0.23250000  0.82017000  1.0
  O  O326  1  0.07450000  0.24110000  0.63116000  1.0
  O  O327  1  0.03560000  0.37270000  0.61878000  1.0
  O  O328  1  0.52060000  0.57210000  0.76729000  1.0
  O  O329  1  0.50510000  0.47810000  0.83794000  1.0
  O  O330  1  0.53928000  0.12191000  0.40292000  1.0
  O  O331  1  0.14627000  0.36228000  0.03072000  1.0
  O  O332  1  0.46301000  0.13692000  0.50896000  1.0
  O  O333  1  0.44638000  0.99803000  0.44781000  1.0
  O  O334  1  0.64687000  0.99832000  0.45117000  1.0
  O  O335  1  0.94400000  0.29150000  0.13102000  1.0
  O  O336  1  0.29165000  0.16890000  0.53137000  1.0
  O  O337  1  0.46978000  0.93237000  0.37616000  1.0
  O  O338  1  0.66555000  0.94844000  0.37409000  1.0
  O  O339  1  0.97050000  0.21180000  0.06852000  1.0
  O  O340  1  0.32624000  0.23991000  0.46524000  1.0
  O  O341  1  0.10410000  0.24587000  0.00955000  1.0
  O  O342  1  0.46742000  0.22799000  0.39872000  1.0
  O  O343  1  0.87560000  0.31762000  0.40966000  1.0
  O  O344  1  0.89720000  0.26750000  0.32017000  1.0
  O  O345  1  0.57450000  0.25890000  0.13116000  1.0
  O  O346  1  0.53560000  0.12730000  0.11878000  1.0
  O  O347  1  0.02060000  0.92790000  0.26729000  1.0
  O  O348  1  0.00510000  0.02190000  0.33794000  1.0
  O  O349  1  0.96072000  0.62191000  0.09708000  1.0
  O  O350  1  0.35373000  0.86228000  0.46928000  1.0
  O  O351  1  0.03699000  0.63692000  0.99104000  1.0
  O  O352  1  0.05362000  0.49803000  0.05219000  1.0
  O  O353  1  0.85313000  0.49832000  0.04883000  1.0
  O  O354  1  0.55600000  0.79150000  0.36898000  1.0
  O  O355  1  0.20835000  0.66890000  0.96863000  1.0
  O  O356  1  0.03022000  0.43237000  0.12384000  1.0
  O  O357  1  0.83445000  0.44844000  0.12591000  1.0
  O  O358  1  0.52950000  0.71180000  0.43148000  1.0
  O  O359  1  0.17376000  0.73991000  0.03476000  1.0
  O  O360  1  0.39590000  0.74587000  0.49045000  1.0
  O  O361  1  0.03258000  0.72799000  0.10128000  1.0
  O  O362  1  0.62440000  0.81762000  0.09034000  1.0
  O  O363  1  0.60280000  0.76750000  0.17983000  1.0
  O  O364  1  0.92550000  0.75890000  0.36884000  1.0
  O  O365  1  0.96440000  0.62730000  0.38122000  1.0
  O  O366  1  0.47940000  0.42790000  0.23271000  1.0
  O  O367  1  0.49490000  0.52190000  0.16206000  1.0
