# generated using pymatgen
data_Zn8H35(C36O13)2
_symmetry_space_group_name_H-M   'P 1'
_cell_length_a   18.62650000
_cell_length_b   23.57930000
_cell_length_c   30.12270000
_cell_angle_alpha   93.22300000
_cell_angle_beta   90.00000000
_cell_angle_gamma   90.00000000
_symmetry_Int_Tables_number   1
_chemical_formula_structural   Zn8H35(C36O13)2
_chemical_formula_sum   'Zn32 H140 C288 O104'
_cell_volume   13208.95873060
_cell_formula_units_Z   4
loop_
 _symmetry_equiv_pos_site_id
 _symmetry_equiv_pos_as_xyz
  1  'x, y, z'
loop_
 _atom_site_type_symbol
 _atom_site_label
 _atom_site_symmetry_multiplicity
 _atom_site_fract_x
 _atom_site_fract_y
 _atom_site_fract_z
 _atom_site_occupancy
  Zn  Zn0  1  0.57939000  0.64994000  0.61986000  1.0
  Zn  Zn1  1  0.42000000  0.65749000  0.20094000  1.0
  Zn  Zn2  1  0.50587000  0.58959000  0.69867000  1.0
  Zn  Zn3  1  0.50557000  0.72193000  0.69760000  1.0
  Zn  Zn4  1  0.00794000  0.21959000  0.61889000  1.0
  Zn  Zn5  1  0.00607000  0.08472000  0.62413000  1.0
  Zn  Zn6  1  0.58686000  0.65769000  0.19210000  1.0
  Zn  Zn7  1  0.40242000  0.65000000  0.63042000  1.0
  Zn  Zn8  1  0.92061000  0.14994000  0.11986000  1.0
  Zn  Zn9  1  0.08000000  0.15749000  0.70094000  1.0
  Zn  Zn10  1  0.99413000  0.08959000  0.19867000  1.0
  Zn  Zn11  1  0.99443000  0.22193000  0.19760000  1.0
  Zn  Zn12  1  0.49206000  0.71959000  0.11889000  1.0
  Zn  Zn13  1  0.49393000  0.58472000  0.12413000  1.0
  Zn  Zn14  1  0.91314000  0.15769000  0.69210000  1.0
  Zn  Zn15  1  0.09758000  0.15000000  0.13042000  1.0
  Zn  Zn16  1  0.07939000  0.85006000  0.88014000  1.0
  Zn  Zn17  1  0.92000000  0.84251000  0.29906000  1.0
  Zn  Zn18  1  0.00587000  0.91041000  0.80133000  1.0
  Zn  Zn19  1  0.00557000  0.77807000  0.80240000  1.0
  Zn  Zn20  1  0.50794000  0.28041000  0.88111000  1.0
  Zn  Zn21  1  0.50607000  0.41528000  0.87587000  1.0
  Zn  Zn22  1  0.08686000  0.84231000  0.30790000  1.0
  Zn  Zn23  1  0.90242000  0.85000000  0.86958000  1.0
  Zn  Zn24  1  0.42061000  0.35006000  0.38014000  1.0
  Zn  Zn25  1  0.58000000  0.34251000  0.79906000  1.0
  Zn  Zn26  1  0.49413000  0.41041000  0.30133000  1.0
  Zn  Zn27  1  0.49443000  0.27807000  0.30240000  1.0
  Zn  Zn28  1  0.99206000  0.78041000  0.38111000  1.0
  Zn  Zn29  1  0.99393000  0.91528000  0.37587000  1.0
  Zn  Zn30  1  0.41314000  0.34231000  0.80790000  1.0
  Zn  Zn31  1  0.59758000  0.35000000  0.36958000  1.0
  H  H32  1  0.52130000  0.58400000  0.83780000  1.0
  H  H33  1  0.88050000  0.93610000  0.62640000  1.0
  H  H34  1  0.58510000  0.66960000  0.48040000  1.0
  H  H35  1  0.65410000  0.45910000  0.70330000  1.0
  H  H36  1  0.36300000  0.62790000  0.41560000  1.0
  H  H37  1  0.10970000  0.38130000  0.19710000  1.0
  H  H38  1  0.41830000  0.64000000  0.34040000  1.0
  H  H39  1  0.63890000  0.68440000  0.40650000  1.0
  H  H40  1  0.64530000  0.85580000  0.69670000  1.0
  H  H41  1  0.77210000  0.29200000  0.72180000  1.0
  H  H42  1  0.70040000  0.36880000  0.73020000  1.0
  H  H43  1  0.34310000  0.45420000  0.12090000  1.0
  H  H44  1  0.21230000  0.87600000  0.25320000  1.0
  H  H45  1  0.85850000  0.35150000  0.61150000  1.0
  H  H46  1  0.29110000  0.79940000  0.24560000  1.0
  H  H47  1  0.52850000  0.53650000  0.90960000  1.0
  H  H48  1  0.15290000  0.47860000  0.21970000  1.0
  H  H49  1  0.23680000  0.54790000  0.21540000  1.0
  H  H50  1  0.73110000  0.51520000  0.58900000  1.0
  H  H51  1  0.67640000  0.95680000  0.71370000  1.0
  H  H52  1  0.37470000  0.63400000  0.49100000  1.0
  H  H53  1  0.75330000  0.03190000  0.70740000  1.0
  H  H54  1  0.76810000  0.76050000  0.61200000  1.0
  H  H55  1  0.49850000  0.71100000  0.98610000  1.0
  H  H56  1  0.84840000  0.83310000  0.60730000  1.0
  H  H57  1  0.30240000  0.35610000  0.09960000  1.0
  H  H58  1  0.80470000  0.43850000  0.58010000  1.0
  H  H59  1  0.33090000  0.83690000  0.11960000  1.0
  H  H60  1  0.49400000  0.75950000  0.91330000  1.0
  H  H61  1  0.14570000  0.95370000  0.22030000  1.0
  H  H62  1  0.62590000  0.68300000  0.33070000  1.0
  H  H63  1  0.49080000  0.75270000  0.83850000  1.0
  H  H64  1  0.19400000  0.99360000  0.09600000  1.0
  H  H65  1  0.27220000  0.92060000  0.08910000  1.0
  H  H66  1  0.21900000  0.28670000  0.10440000  1.0
  H  H67  1  0.97870000  0.08400000  0.33780000  1.0
  H  H68  1  0.61950000  0.43610000  0.12640000  1.0
  H  H69  1  0.91490000  0.16960000  0.98040000  1.0
  H  H70  1  0.84590000  0.95910000  0.20330000  1.0
  H  H71  1  0.13700000  0.12790000  0.91560000  1.0
  H  H72  1  0.39030000  0.88130000  0.69710000  1.0
  H  H73  1  0.08170000  0.14000000  0.84040000  1.0
  H  H74  1  0.86110000  0.18440000  0.90650000  1.0
  H  H75  1  0.85470000  0.35580000  0.19670000  1.0
  H  H76  1  0.72790000  0.79200000  0.22180000  1.0
  H  H77  1  0.79960000  0.86880000  0.23020000  1.0
  H  H78  1  0.15690000  0.95420000  0.62090000  1.0
  H  H79  1  0.28770000  0.37600000  0.75320000  1.0
  H  H80  1  0.64150000  0.85150000  0.11150000  1.0
  H  H81  1  0.20890000  0.29940000  0.74560000  1.0
  H  H82  1  0.97150000  0.03650000  0.40960000  1.0
  H  H83  1  0.34710000  0.97860000  0.71970000  1.0
  H  H84  1  0.26320000  0.04790000  0.71540000  1.0
  H  H85  1  0.76890000  0.01520000  0.08900000  1.0
  H  H86  1  0.82360000  0.45680000  0.21370000  1.0
  H  H87  1  0.12530000  0.13400000  0.99100000  1.0
  H  H88  1  0.74670000  0.53190000  0.20740000  1.0
  H  H89  1  0.73190000  0.26050000  0.11200000  1.0
  H  H90  1  0.00150000  0.21100000  0.48610000  1.0
  H  H91  1  0.65160000  0.33310000  0.10730000  1.0
  H  H92  1  0.19760000  0.85610000  0.59960000  1.0
  H  H93  1  0.69530000  0.93850000  0.08010000  1.0
  H  H94  1  0.16910000  0.33690000  0.61960000  1.0
  H  H95  1  0.00600000  0.25950000  0.41330000  1.0
  H  H96  1  0.35430000  0.45370000  0.72030000  1.0
  H  H97  1  0.87410000  0.18300000  0.83070000  1.0
  H  H98  1  0.00920000  0.25270000  0.33850000  1.0
  H  H99  1  0.30600000  0.49360000  0.59600000  1.0
  H  H100  1  0.22780000  0.42060000  0.58910000  1.0
  H  H101  1  0.28100000  0.78670000  0.60440000  1.0
  H  H102  1  0.02130000  0.91600000  0.66220000  1.0
  H  H103  1  0.38050000  0.56390000  0.87360000  1.0
  H  H104  1  0.08510000  0.83040000  0.01960000  1.0
  H  H105  1  0.15410000  0.04090000  0.79670000  1.0
  H  H106  1  0.86300000  0.87210000  0.08440000  1.0
  H  H107  1  0.60970000  0.11870000  0.30290000  1.0
  H  H108  1  0.91830000  0.86000000  0.15960000  1.0
  H  H109  1  0.13890000  0.81560000  0.09350000  1.0
  H  H110  1  0.14530000  0.64420000  0.80330000  1.0
  H  H111  1  0.27210000  0.20800000  0.77820000  1.0
  H  H112  1  0.20040000  0.13120000  0.76980000  1.0
  H  H113  1  0.84310000  0.04580000  0.37910000  1.0
  H  H114  1  0.71230000  0.62400000  0.24680000  1.0
  H  H115  1  0.35850000  0.14850000  0.88850000  1.0
  H  H116  1  0.79110000  0.70060000  0.25440000  1.0
  H  H117  1  0.02850000  0.96350000  0.59040000  1.0
  H  H118  1  0.65290000  0.02140000  0.28030000  1.0
  H  H119  1  0.73680000  0.95210000  0.28460000  1.0
  H  H120  1  0.23110000  0.98480000  0.91100000  1.0
  H  H121  1  0.17640000  0.54320000  0.78630000  1.0
  H  H122  1  0.87470000  0.86600000  0.00900000  1.0
  H  H123  1  0.25330000  0.46810000  0.79260000  1.0
  H  H124  1  0.26810000  0.73950000  0.88800000  1.0
  H  H125  1  0.99850000  0.78900000  0.51390000  1.0
  H  H126  1  0.34840000  0.66690000  0.89270000  1.0
  H  H127  1  0.80240000  0.14390000  0.40040000  1.0
  H  H128  1  0.30470000  0.06150000  0.91990000  1.0
  H  H129  1  0.83090000  0.66310000  0.38040000  1.0
  H  H130  1  0.99400000  0.74050000  0.58670000  1.0
  H  H131  1  0.64570000  0.54630000  0.27970000  1.0
  H  H132  1  0.12590000  0.81700000  0.16930000  1.0
  H  H133  1  0.99080000  0.74730000  0.66150000  1.0
  H  H134  1  0.69400000  0.50640000  0.40400000  1.0
  H  H135  1  0.77220000  0.57940000  0.41090000  1.0
  H  H136  1  0.71900000  0.21330000  0.39560000  1.0
  H  H137  1  0.47870000  0.41600000  0.16220000  1.0
  H  H138  1  0.11950000  0.06390000  0.37360000  1.0
  H  H139  1  0.41490000  0.33040000  0.51960000  1.0
  H  H140  1  0.34590000  0.54090000  0.29670000  1.0
  H  H141  1  0.63700000  0.37210000  0.58440000  1.0
  H  H142  1  0.89030000  0.61870000  0.80290000  1.0
  H  H143  1  0.58170000  0.36000000  0.65960000  1.0
  H  H144  1  0.36110000  0.31560000  0.59350000  1.0
  H  H145  1  0.35470000  0.14420000  0.30330000  1.0
  H  H146  1  0.22790000  0.70800000  0.27820000  1.0
  H  H147  1  0.29960000  0.63120000  0.26980000  1.0
  H  H148  1  0.65690000  0.54580000  0.87910000  1.0
  H  H149  1  0.78770000  0.12400000  0.74680000  1.0
  H  H150  1  0.14150000  0.64850000  0.38850000  1.0
  H  H151  1  0.70890000  0.20060000  0.75440000  1.0
  H  H152  1  0.47150000  0.46350000  0.09040000  1.0
  H  H153  1  0.84710000  0.52140000  0.78030000  1.0
  H  H154  1  0.76320000  0.45210000  0.78460000  1.0
  H  H155  1  0.26890000  0.48480000  0.41100000  1.0
  H  H156  1  0.32360000  0.04320000  0.28630000  1.0
  H  H157  1  0.62530000  0.36600000  0.50900000  1.0
  H  H158  1  0.24670000  0.96810000  0.29260000  1.0
  H  H159  1  0.23190000  0.23950000  0.38800000  1.0
  H  H160  1  0.50150000  0.28900000  0.01390000  1.0
  H  H161  1  0.15160000  0.16690000  0.39270000  1.0
  H  H162  1  0.69760000  0.64390000  0.90040000  1.0
  H  H163  1  0.19530000  0.56150000  0.41990000  1.0
  H  H164  1  0.66910000  0.16310000  0.88040000  1.0
  H  H165  1  0.50600000  0.24050000  0.08670000  1.0
  H  H166  1  0.85430000  0.04630000  0.77970000  1.0
  H  H167  1  0.37410000  0.31700000  0.66930000  1.0
  H  H168  1  0.50920000  0.24730000  0.16150000  1.0
  H  H169  1  0.80600000  0.00640000  0.90400000  1.0
  H  H170  1  0.72780000  0.07940000  0.91090000  1.0
  H  H171  1  0.78100000  0.71330000  0.89560000  1.0
  C  C172  1  0.51350000  0.65750000  0.27910000  1.0
  C  C173  1  0.51560000  0.62200000  0.90010000  1.0
  C  C174  1  0.51650000  0.61910000  0.85320000  1.0
  C  C175  1  0.46690000  0.65030000  0.40020000  1.0
  C  C176  1  0.51970000  0.66070000  0.32780000  1.0
  C  C177  1  0.79490000  0.89270000  0.64740000  1.0
  C  C178  1  0.84030000  0.93950000  0.64460000  1.0
  C  C179  1  0.48190000  0.65100000  0.49360000  1.0
  C  C180  1  0.19460000  0.42240000  0.17240000  1.0
  C  C181  1  0.69740000  0.80170000  0.65490000  1.0
  C  C182  1  0.68460000  0.49480000  0.64630000  1.0
  C  C183  1  0.54060000  0.66240000  0.46720000  1.0
  C  C184  1  0.73130000  0.40760000  0.67450000  1.0
  C  C185  1  0.53330000  0.66300000  0.42060000  1.0
  C  C186  1  0.68460000  0.45470000  0.67890000  1.0
  C  C187  1  0.40710000  0.63760000  0.42830000  1.0
  C  C188  1  0.14700000  0.37720000  0.17660000  1.0
  C  C189  1  0.46200000  0.64900000  0.35390000  1.0
  C  C190  1  0.77800000  0.40180000  0.63740000  1.0
  C  C191  1  0.59470000  0.67570000  0.39340000  1.0
  C  C192  1  0.68480000  0.85230000  0.67780000  1.0
  C  C193  1  0.87890000  0.03840000  0.66360000  1.0
  C  C194  1  0.77350000  0.31940000  0.70090000  1.0
  C  C195  1  0.51850000  0.57580000  0.96930000  1.0
  C  C196  1  0.73090000  0.36500000  0.70580000  1.0
  C  C197  1  0.73050000  0.89980000  0.67340000  1.0
  C  C198  1  0.30530000  0.45860000  0.14100000  1.0
  C  C199  1  0.23610000  0.86810000  0.22640000  1.0
  C  C200  1  0.15330000  0.32740000  0.15180000  1.0
  C  C201  1  0.31930000  0.81270000  0.18090000  1.0
  C  C202  1  0.82470000  0.35440000  0.63430000  1.0
  C  C203  1  0.82810000  0.98890000  0.66720000  1.0
  C  C204  1  0.28320000  0.82260000  0.22220000  1.0
  C  C205  1  0.30070000  0.50700000  0.16790000  1.0
  C  C206  1  0.52200000  0.57170000  0.92450000  1.0
  C  C207  1  0.25380000  0.41530000  0.14300000  1.0
  C  C208  1  0.22400000  0.90240000  0.19020000  1.0
  C  C209  1  0.51030000  0.66740000  0.82980000  1.0
  C  C210  1  0.10330000  0.27890000  0.15610000  1.0
  C  C211  1  0.19080000  0.47340000  0.19980000  1.0
  C  C212  1  0.24100000  0.51460000  0.19760000  1.0
  C  C213  1  0.73080000  0.48800000  0.61020000  1.0
  C  C214  1  0.26020000  0.89240000  0.15130000  1.0
  C  C215  1  0.71730000  0.95230000  0.69610000  1.0
  C  C216  1  0.41460000  0.63990000  0.47330000  1.0
  C  C217  1  0.10760000  0.02770000  0.16300000  1.0
  C  C218  1  0.76340000  0.99690000  0.69300000  1.0
  C  C219  1  0.75970000  0.79490000  0.62780000  1.0
  C  C220  1  0.50380000  0.67620000  0.97030000  1.0
  C  C221  1  0.80730000  0.83860000  0.62460000  1.0
  C  C222  1  0.16060000  0.98010000  0.15840000  1.0
  C  C223  1  0.26280000  0.36190000  0.11810000  1.0
  C  C224  1  0.50730000  0.67480000  0.92370000  1.0
  C  C225  1  0.37160000  0.76410000  0.17740000  1.0
  C  C226  1  0.77550000  0.44270000  0.60510000  1.0
  C  C227  1  0.30780000  0.84520000  0.14660000  1.0
  C  C228  1  0.49910000  0.72410000  0.89840000  1.0
  C  C229  1  0.17160000  0.94710000  0.19420000  1.0
  C  C230  1  0.58680000  0.67460000  0.34840000  1.0
  C  C231  1  0.49870000  0.72030000  0.85390000  1.0
  C  C232  1  0.50800000  0.62880000  0.99240000  1.0
  C  C233  1  0.20030000  0.97020000  0.11950000  1.0
  C  C234  1  0.82110000  0.31240000  0.66400000  1.0
  C  C235  1  0.24750000  0.92740000  0.11560000  1.0
  C  C236  1  0.87090000  0.26360000  0.66070000  1.0
  C  C237  1  0.50430000  0.63130000  0.04220000  1.0
  C  C238  1  0.35670000  0.55190000  0.16560000  1.0
  C  C239  1  0.64490000  0.75410000  0.65810000  1.0
  C  C240  1  0.51070000  0.66340000  0.78040000  1.0
  C  C241  1  0.49050000  0.64990000  0.54330000  1.0
  C  C242  1  0.63460000  0.54450000  0.65170000  1.0
  C  C243  1  0.21390000  0.32040000  0.12160000  1.0
  C  C244  1  0.98650000  0.15750000  0.77910000  1.0
  C  C245  1  0.98440000  0.12200000  0.40010000  1.0
  C  C246  1  0.98350000  0.11910000  0.35320000  1.0
  C  C247  1  0.03310000  0.15030000  0.90020000  1.0
  C  C248  1  0.98030000  0.16070000  0.82780000  1.0
  C  C249  1  0.70510000  0.39270000  0.14740000  1.0
  C  C250  1  0.65970000  0.43950000  0.14460000  1.0
  C  C251  1  0.01810000  0.15100000  0.99360000  1.0
  C  C252  1  0.30540000  0.92240000  0.67240000  1.0
  C  C253  1  0.80260000  0.30170000  0.15490000  1.0
  C  C254  1  0.81540000  0.99480000  0.14630000  1.0
  C  C255  1  0.95940000  0.16240000  0.96720000  1.0
  C  C256  1  0.76870000  0.90760000  0.17450000  1.0
  C  C257  1  0.96670000  0.16300000  0.92060000  1.0
  C  C258  1  0.81540000  0.95470000  0.17890000  1.0
  C  C259  1  0.09290000  0.13760000  0.92830000  1.0
  C  C260  1  0.35300000  0.87720000  0.67660000  1.0
  C  C261  1  0.03800000  0.14900000  0.85390000  1.0
  C  C262  1  0.72200000  0.90180000  0.13740000  1.0
  C  C263  1  0.90530000  0.17570000  0.89340000  1.0
  C  C264  1  0.81520000  0.35230000  0.17780000  1.0
  C  C265  1  0.62110000  0.53840000  0.16360000  1.0
  C  C266  1  0.72650000  0.81940000  0.20090000  1.0
  C  C267  1  0.98150000  0.07580000  0.46930000  1.0
  C  C268  1  0.76910000  0.86500000  0.20580000  1.0
  C  C269  1  0.76950000  0.39980000  0.17340000  1.0
  C  C270  1  0.19470000  0.95860000  0.64100000  1.0
  C  C271  1  0.26390000  0.36810000  0.72640000  1.0
  C  C272  1  0.34670000  0.82740000  0.65180000  1.0
  C  C273  1  0.18070000  0.31270000  0.68090000  1.0
  C  C274  1  0.67530000  0.85440000  0.13430000  1.0
  C  C275  1  0.67190000  0.48890000  0.16720000  1.0
  C  C276  1  0.21680000  0.32260000  0.72220000  1.0
  C  C277  1  0.19930000  0.00700000  0.66790000  1.0
  C  C278  1  0.97800000  0.07170000  0.42450000  1.0
  C  C279  1  0.24620000  0.91530000  0.64300000  1.0
  C  C280  1  0.27600000  0.40240000  0.69020000  1.0
  C  C281  1  0.98970000  0.16740000  0.32980000  1.0
  C  C282  1  0.39670000  0.77890000  0.65610000  1.0
  C  C283  1  0.30920000  0.97340000  0.69980000  1.0
  C  C284  1  0.25900000  0.01460000  0.69760000  1.0
  C  C285  1  0.76920000  0.98800000  0.11020000  1.0
  C  C286  1  0.23980000  0.39240000  0.65130000  1.0
  C  C287  1  0.78270000  0.45230000  0.19610000  1.0
  C  C288  1  0.08540000  0.13990000  0.97330000  1.0
  C  C289  1  0.39240000  0.52770000  0.66300000  1.0
  C  C290  1  0.73660000  0.49690000  0.19300000  1.0
  C  C291  1  0.74030000  0.29490000  0.12780000  1.0
  C  C292  1  0.99620000  0.17620000  0.47030000  1.0
  C  C293  1  0.69270000  0.33860000  0.12460000  1.0
  C  C294  1  0.33940000  0.48010000  0.65840000  1.0
  C  C295  1  0.23720000  0.86190000  0.61810000  1.0
  C  C296  1  0.99270000  0.17480000  0.42370000  1.0
  C  C297  1  0.12840000  0.26410000  0.67740000  1.0
  C  C298  1  0.72450000  0.94270000  0.10510000  1.0
  C  C299  1  0.19220000  0.34520000  0.64660000  1.0
  C  C300  1  0.00090000  0.22410000  0.39840000  1.0
  C  C301  1  0.32840000  0.44710000  0.69420000  1.0
  C  C302  1  0.91320000  0.17460000  0.84840000  1.0
  C  C303  1  0.00130000  0.22030000  0.35390000  1.0
  C  C304  1  0.99200000  0.12880000  0.49240000  1.0
  C  C305  1  0.29970000  0.47020000  0.61950000  1.0
  C  C306  1  0.67890000  0.81240000  0.16400000  1.0
  C  C307  1  0.25250000  0.42740000  0.61560000  1.0
  C  C308  1  0.62910000  0.76360000  0.16070000  1.0
  C  C309  1  0.99570000  0.13130000  0.54220000  1.0
  C  C310  1  0.14330000  0.05190000  0.66560000  1.0
  C  C311  1  0.85510000  0.25410000  0.15810000  1.0
  C  C312  1  0.98930000  0.16340000  0.28040000  1.0
  C  C313  1  0.00950000  0.14990000  0.04330000  1.0
  C  C314  1  0.86540000  0.04450000  0.15170000  1.0
  C  C315  1  0.28610000  0.82040000  0.62160000  1.0
  C  C316  1  0.01350000  0.84250000  0.22090000  1.0
  C  C317  1  0.01560000  0.87800000  0.59990000  1.0
  C  C318  1  0.01650000  0.88090000  0.64680000  1.0
  C  C319  1  0.96690000  0.84970000  0.09980000  1.0
  C  C320  1  0.01970000  0.83930000  0.17220000  1.0
  C  C321  1  0.29490000  0.60730000  0.85260000  1.0
  C  C322  1  0.34030000  0.56050000  0.85540000  1.0
  C  C323  1  0.98190000  0.84900000  0.00640000  1.0
  C  C324  1  0.69460000  0.07760000  0.32760000  1.0
  C  C325  1  0.19740000  0.69830000  0.84510000  1.0
  C  C326  1  0.18460000  0.00520000  0.85370000  1.0
  C  C327  1  0.04060000  0.83760000  0.03280000  1.0
  C  C328  1  0.23130000  0.09240000  0.82550000  1.0
  C  C329  1  0.03330000  0.83700000  0.07940000  1.0
  C  C330  1  0.18460000  0.04530000  0.82110000  1.0
  C  C331  1  0.90710000  0.86240000  0.07170000  1.0
  C  C332  1  0.64700000  0.12280000  0.32340000  1.0
  C  C333  1  0.96200000  0.85100000  0.14610000  1.0
  C  C334  1  0.27800000  0.09820000  0.86260000  1.0
  C  C335  1  0.09470000  0.82430000  0.10660000  1.0
  C  C336  1  0.18480000  0.64770000  0.82220000  1.0
  C  C337  1  0.37890000  0.46160000  0.83640000  1.0
  C  C338  1  0.27350000  0.18060000  0.79910000  1.0
  C  C339  1  0.01850000  0.92420000  0.53070000  1.0
  C  C340  1  0.23090000  0.13500000  0.79420000  1.0
  C  C341  1  0.23050000  0.60020000  0.82660000  1.0
  C  C342  1  0.80530000  0.04140000  0.35900000  1.0
  C  C343  1  0.73610000  0.63190000  0.27360000  1.0
  C  C344  1  0.65330000  0.17260000  0.34820000  1.0
  C  C345  1  0.81930000  0.68730000  0.31910000  1.0
  C  C346  1  0.32470000  0.14560000  0.86570000  1.0
  C  C347  1  0.32810000  0.51110000  0.83280000  1.0
  C  C348  1  0.78320000  0.67740000  0.27780000  1.0
  C  C349  1  0.80070000  0.99300000  0.33210000  1.0
  C  C350  1  0.02200000  0.92830000  0.57550000  1.0
  C  C351  1  0.75380000  0.08470000  0.35700000  1.0
  C  C352  1  0.72400000  0.59760000  0.30980000  1.0
  C  C353  1  0.01030000  0.83260000  0.67020000  1.0
  C  C354  1  0.60330000  0.22110000  0.34390000  1.0
  C  C355  1  0.69080000  0.02660000  0.30020000  1.0
  C  C356  1  0.74100000  0.98540000  0.30240000  1.0
  C  C357  1  0.23080000  0.01200000  0.88980000  1.0
  C  C358  1  0.76020000  0.60760000  0.34870000  1.0
  C  C359  1  0.21730000  0.54770000  0.80390000  1.0
  C  C360  1  0.91460000  0.86010000  0.02670000  1.0
  C  C361  1  0.60760000  0.47230000  0.33700000  1.0
  C  C362  1  0.26340000  0.50310000  0.80700000  1.0
  C  C363  1  0.25970000  0.70510000  0.87220000  1.0
  C  C364  1  0.00380000  0.82380000  0.52970000  1.0
  C  C365  1  0.30730000  0.66140000  0.87540000  1.0
  C  C366  1  0.66060000  0.51990000  0.34160000  1.0
  C  C367  1  0.76280000  0.13810000  0.38190000  1.0
  C  C368  1  0.00730000  0.82520000  0.57630000  1.0
  C  C369  1  0.87160000  0.73590000  0.32260000  1.0
  C  C370  1  0.27550000  0.05730000  0.89490000  1.0
  C  C371  1  0.80780000  0.65480000  0.35340000  1.0
  C  C372  1  0.99910000  0.77590000  0.60160000  1.0
  C  C373  1  0.67160000  0.55290000  0.30580000  1.0
  C  C374  1  0.08680000  0.82540000  0.15160000  1.0
  C  C375  1  0.99870000  0.77970000  0.64610000  1.0
  C  C376  1  0.00800000  0.87120000  0.50760000  1.0
  C  C377  1  0.70030000  0.52980000  0.38050000  1.0
  C  C378  1  0.32110000  0.18760000  0.83600000  1.0
  C  C379  1  0.74750000  0.57260000  0.38440000  1.0
  C  C380  1  0.37090000  0.23640000  0.83930000  1.0
  C  C381  1  0.00430000  0.86870000  0.45780000  1.0
  C  C382  1  0.85670000  0.94810000  0.33440000  1.0
  C  C383  1  0.14490000  0.74590000  0.84190000  1.0
  C  C384  1  0.01070000  0.83660000  0.71960000  1.0
  C  C385  1  0.99050000  0.85010000  0.95670000  1.0
  C  C386  1  0.13460000  0.95550000  0.84830000  1.0
  C  C387  1  0.71390000  0.17960000  0.37840000  1.0
  C  C388  1  0.48650000  0.34250000  0.72090000  1.0
  C  C389  1  0.48440000  0.37800000  0.09990000  1.0
  C  C390  1  0.48350000  0.38090000  0.14680000  1.0
  C  C391  1  0.53310000  0.34970000  0.59980000  1.0
  C  C392  1  0.48030000  0.33930000  0.67220000  1.0
  C  C393  1  0.20510000  0.10730000  0.35260000  1.0
  C  C394  1  0.15970000  0.06050000  0.35540000  1.0
  C  C395  1  0.51810000  0.34900000  0.50640000  1.0
  C  C396  1  0.80540000  0.57760000  0.82760000  1.0
  C  C397  1  0.30260000  0.19830000  0.34510000  1.0
  C  C398  1  0.31540000  0.50520000  0.35370000  1.0
  C  C399  1  0.45940000  0.33760000  0.53280000  1.0
  C  C400  1  0.26870000  0.59240000  0.32550000  1.0
  C  C401  1  0.46670000  0.33700000  0.57940000  1.0
  C  C402  1  0.31540000  0.54530000  0.32110000  1.0
  C  C403  1  0.59290000  0.36240000  0.57170000  1.0
  C  C404  1  0.85300000  0.62280000  0.82340000  1.0
  C  C405  1  0.53800000  0.35100000  0.64610000  1.0
  C  C406  1  0.22200000  0.59820000  0.36260000  1.0
  C  C407  1  0.40530000  0.32430000  0.60660000  1.0
  C  C408  1  0.31520000  0.14770000  0.32220000  1.0
  C  C409  1  0.12110000  0.96160000  0.33640000  1.0
  C  C410  1  0.22650000  0.68060000  0.29910000  1.0
  C  C411  1  0.48150000  0.42420000  0.03070000  1.0
  C  C412  1  0.26910000  0.63500000  0.29420000  1.0
  C  C413  1  0.26950000  0.10020000  0.32660000  1.0
  C  C414  1  0.69470000  0.54140000  0.85900000  1.0
  C  C415  1  0.76390000  0.13190000  0.77360000  1.0
  C  C416  1  0.84670000  0.67260000  0.84820000  1.0
  C  C417  1  0.68070000  0.18730000  0.81910000  1.0
  C  C418  1  0.17530000  0.64560000  0.36570000  1.0
  C  C419  1  0.17190000  0.01110000  0.33280000  1.0
  C  C420  1  0.71680000  0.17740000  0.77780000  1.0
  C  C421  1  0.69930000  0.49300000  0.83210000  1.0
  C  C422  1  0.47800000  0.42830000  0.07550000  1.0
  C  C423  1  0.74620000  0.58470000  0.85700000  1.0
  C  C424  1  0.77600000  0.09760000  0.80980000  1.0
  C  C425  1  0.48970000  0.33260000  0.17020000  1.0
  C  C426  1  0.89670000  0.72110000  0.84390000  1.0
  C  C427  1  0.80920000  0.52660000  0.80020000  1.0
  C  C428  1  0.75900000  0.48540000  0.80240000  1.0
  C  C429  1  0.26920000  0.51200000  0.38980000  1.0
  C  C430  1  0.73980000  0.10760000  0.84870000  1.0
  C  C431  1  0.28270000  0.04770000  0.30390000  1.0
  C  C432  1  0.58540000  0.36010000  0.52670000  1.0
  C  C433  1  0.89240000  0.97230000  0.83700000  1.0
  C  C434  1  0.23660000  0.00310000  0.30700000  1.0
  C  C435  1  0.24030000  0.20510000  0.37220000  1.0
  C  C436  1  0.49620000  0.32380000  0.02970000  1.0
  C  C437  1  0.19270000  0.16140000  0.37540000  1.0
  C  C438  1  0.83940000  0.01990000  0.84160000  1.0
  C  C439  1  0.73720000  0.63810000  0.88190000  1.0
  C  C440  1  0.49270000  0.32520000  0.07630000  1.0
  C  C441  1  0.62840000  0.23590000  0.82260000  1.0
  C  C442  1  0.22450000  0.55730000  0.39490000  1.0
  C  C443  1  0.69220000  0.15480000  0.85340000  1.0
  C  C444  1  0.50090000  0.27590000  0.10160000  1.0
  C  C445  1  0.82840000  0.05290000  0.80580000  1.0
  C  C446  1  0.41320000  0.32540000  0.65160000  1.0
  C  C447  1  0.50130000  0.27970000  0.14610000  1.0
  C  C448  1  0.49200000  0.37120000  0.00760000  1.0
  C  C449  1  0.79970000  0.02980000  0.88050000  1.0
  C  C450  1  0.17890000  0.68760000  0.33600000  1.0
  C  C451  1  0.75250000  0.07260000  0.88440000  1.0
  C  C452  1  0.12910000  0.73640000  0.33930000  1.0
  C  C453  1  0.49570000  0.36870000  0.95780000  1.0
  C  C454  1  0.64330000  0.44810000  0.83440000  1.0
  C  C455  1  0.35510000  0.24590000  0.34190000  1.0
  C  C456  1  0.48930000  0.33660000  0.21960000  1.0
  C  C457  1  0.50950000  0.35010000  0.45670000  1.0
  C  C458  1  0.36540000  0.45550000  0.34830000  1.0
  C  C459  1  0.78610000  0.67960000  0.87840000  1.0
  O  O460  1  0.43620000  0.64230000  0.56460000  1.0
  O  O461  1  0.56820000  0.66440000  0.25690000  1.0
  O  O462  1  0.35180000  0.59460000  0.19200000  1.0
  O  O463  1  0.50940000  0.70990000  0.76110000  1.0
  O  O464  1  0.59800000  0.76000000  0.68740000  1.0
  O  O465  1  0.93170000  0.03020000  0.63960000  1.0
  O  O466  1  0.36400000  0.72630000  0.20540000  1.0
  O  O467  1  0.45260000  0.64840000  0.26230000  1.0
  O  O468  1  0.49520000  0.58480000  0.06020000  1.0
  O  O469  1  0.06080000  0.28250000  0.18820000  1.0
  O  O470  1  0.06580000  0.03030000  0.19610000  1.0
  O  O471  1  0.91910000  0.26430000  0.62980000  1.0
  O  O472  1  0.85050000  0.22000000  0.68460000  1.0
  O  O473  1  0.86200000  0.08500000  0.68490000  1.0
  O  O474  1  0.51010000  0.67770000  0.06250000  1.0
  O  O475  1  0.59590000  0.54810000  0.68570000  1.0
  O  O476  1  0.41360000  0.76140000  0.14630000  1.0
  O  O477  1  0.50020000  0.65320000  0.66050000  1.0
  O  O478  1  0.49790000  0.65590000  0.15880000  1.0
  O  O479  1  0.51350000  0.61470000  0.76150000  1.0
  O  O480  1  0.63590000  0.57990000  0.62200000  1.0
  O  O481  1  0.65040000  0.71190000  0.63130000  1.0
  O  O482  1  0.40550000  0.54310000  0.13740000  1.0
  O  O483  1  0.55420000  0.65740000  0.55800000  1.0
  O  O484  1  0.10690000  0.23790000  0.12910000  1.0
  O  O485  1  0.10910000  0.06230000  0.13350000  1.0
  O  O486  1  0.06380000  0.14230000  0.06460000  1.0
  O  O487  1  0.93180000  0.16440000  0.75690000  1.0
  O  O488  1  0.14820000  0.09460000  0.69200000  1.0
  O  O489  1  0.99060000  0.20990000  0.26110000  1.0
  O  O490  1  0.90200000  0.26000000  0.18740000  1.0
  O  O491  1  0.56830000  0.53020000  0.13960000  1.0
  O  O492  1  0.13600000  0.22630000  0.70540000  1.0
  O  O493  1  0.04740000  0.14840000  0.76230000  1.0
  O  O494  1  0.00480000  0.08480000  0.56020000  1.0
  O  O495  1  0.43920000  0.78250000  0.68820000  1.0
  O  O496  1  0.43420000  0.53030000  0.69610000  1.0
  O  O497  1  0.58090000  0.76430000  0.12980000  1.0
  O  O498  1  0.64950000  0.72000000  0.18460000  1.0
  O  O499  1  0.63800000  0.58500000  0.18490000  1.0
  O  O500  1  0.98990000  0.17770000  0.56250000  1.0
  O  O501  1  0.90410000  0.04810000  0.18570000  1.0
  O  O502  1  0.08640000  0.26140000  0.64630000  1.0
  O  O503  1  0.99980000  0.15320000  0.16050000  1.0
  O  O504  1  0.00210000  0.15590000  0.65880000  1.0
  O  O505  1  0.98650000  0.11470000  0.26150000  1.0
  O  O506  1  0.86410000  0.07990000  0.12200000  1.0
  O  O507  1  0.84960000  0.21190000  0.13130000  1.0
  O  O508  1  0.09450000  0.04310000  0.63740000  1.0
  O  O509  1  0.94580000  0.15740000  0.05800000  1.0
  O  O510  1  0.39310000  0.73790000  0.62910000  1.0
  O  O511  1  0.39090000  0.56230000  0.63350000  1.0
  O  O512  1  0.93620000  0.85770000  0.93540000  1.0
  O  O513  1  0.06820000  0.83560000  0.24310000  1.0
  O  O514  1  0.85180000  0.90540000  0.30800000  1.0
  O  O515  1  0.00940000  0.79010000  0.73890000  1.0
  O  O516  1  0.09800000  0.74000000  0.81260000  1.0
  O  O517  1  0.43170000  0.46980000  0.86040000  1.0
  O  O518  1  0.86400000  0.77370000  0.29460000  1.0
  O  O519  1  0.95260000  0.85160000  0.23770000  1.0
  O  O520  1  0.99520000  0.91520000  0.43980000  1.0
  O  O521  1  0.56080000  0.21750000  0.31180000  1.0
  O  O522  1  0.56580000  0.46970000  0.30390000  1.0
  O  O523  1  0.41910000  0.23570000  0.87020000  1.0
  O  O524  1  0.35050000  0.28000000  0.81540000  1.0
  O  O525  1  0.36200000  0.41500000  0.81510000  1.0
  O  O526  1  0.01010000  0.82230000  0.43750000  1.0
  O  O527  1  0.09590000  0.95190000  0.81430000  1.0
  O  O528  1  0.91360000  0.73860000  0.35370000  1.0
  O  O529  1  0.00020000  0.84680000  0.83950000  1.0
  O  O530  1  0.99790000  0.84410000  0.34120000  1.0
  O  O531  1  0.01350000  0.88530000  0.73850000  1.0
  O  O532  1  0.13590000  0.92010000  0.87800000  1.0
  O  O533  1  0.15040000  0.78810000  0.86870000  1.0
  O  O534  1  0.90550000  0.95690000  0.36260000  1.0
  O  O535  1  0.05420000  0.84260000  0.94200000  1.0
  O  O536  1  0.60690000  0.26210000  0.37090000  1.0
  O  O537  1  0.60910000  0.43770000  0.36650000  1.0
  O  O538  1  0.56380000  0.35770000  0.43540000  1.0
  O  O539  1  0.43180000  0.33560000  0.74310000  1.0
  O  O540  1  0.64820000  0.40540000  0.80800000  1.0
  O  O541  1  0.49060000  0.29010000  0.23890000  1.0
  O  O542  1  0.40200000  0.24000000  0.31260000  1.0
  O  O543  1  0.06830000  0.96980000  0.36040000  1.0
  O  O544  1  0.63600000  0.27370000  0.79460000  1.0
  O  O545  1  0.54740000  0.35160000  0.73770000  1.0
  O  O546  1  0.50480000  0.41520000  0.93980000  1.0
  O  O547  1  0.93920000  0.71750000  0.81180000  1.0
  O  O548  1  0.93420000  0.96970000  0.80390000  1.0
  O  O549  1  0.08090000  0.73570000  0.37020000  1.0
  O  O550  1  0.14950000  0.78000000  0.31540000  1.0
  O  O551  1  0.13800000  0.91500000  0.31510000  1.0
  O  O552  1  0.48990000  0.32230000  0.93750000  1.0
  O  O553  1  0.40410000  0.45190000  0.31430000  1.0
  O  O554  1  0.58640000  0.23860000  0.85370000  1.0
  O  O555  1  0.49980000  0.34680000  0.33950000  1.0
  O  O556  1  0.50210000  0.34410000  0.84120000  1.0
  O  O557  1  0.48650000  0.38530000  0.23850000  1.0
  O  O558  1  0.36410000  0.42010000  0.37800000  1.0
  O  O559  1  0.34960000  0.28810000  0.36870000  1.0
  O  O560  1  0.59450000  0.45690000  0.86260000  1.0
  O  O561  1  0.44580000  0.34260000  0.44200000  1.0
  O  O562  1  0.89310000  0.76210000  0.87090000  1.0
  O  O563  1  0.89090000  0.93770000  0.86650000  1.0
