# generated using pymatgen
data_Zn5H14C26(NO)12
_symmetry_space_group_name_H-M   'P 1'
_cell_length_a   9.86230000
_cell_length_b   13.19490000
_cell_length_c   17.89530000
_cell_angle_alpha   84.08940000
_cell_angle_beta   74.00500000
_cell_angle_gamma   68.05520000
_symmetry_Int_Tables_number   1
_chemical_formula_structural   Zn5H14C26(NO)12
_chemical_formula_sum   'Zn10 H28 C52 N24 O24'
_cell_volume   2076.39738180
_cell_formula_units_Z   2
loop_
 _symmetry_equiv_pos_site_id
 _symmetry_equiv_pos_as_xyz
  1  'x, y, z'
loop_
 _atom_site_type_symbol
 _atom_site_label
 _atom_site_symmetry_multiplicity
 _atom_site_fract_x
 _atom_site_fract_y
 _atom_site_fract_z
 _atom_site_occupancy
  Zn  Zn0  1  0.52513000  0.81928000  0.16798000  1.0
  Zn  Zn1  1  0.86673000  0.10220000  0.19454000  1.0
  Zn  Zn2  1  0.51239000  0.18072000  0.83202000  1.0
  Zn  Zn3  1  0.16348000  0.89779000  0.80545000  1.0
  Zn  Zn4  1  0.94311000  0.31928000  0.33202000  1.0
  Zn  Zn5  1  0.31127000  0.60221000  0.30545000  1.0
  Zn  Zn6  1  0.59441000  0.68072000  0.66798000  1.0
  Zn  Zn7  1  0.21892000  0.39780000  0.69455000  1.0
  Zn  Zn8  1  0.02027000  0.00000000  0.00000000  1.0
  Zn  Zn9  1  0.27027000  0.50000000  0.50000000  1.0
  H  H10  1  0.72370000  0.45720000  0.11840000  1.0
  H  H11  1  0.87840000  0.61440000  0.93100000  1.0
  H  H12  1  0.02270000  0.28660000  0.93180000  1.0
  H  H13  1  0.35590000  0.87360000  0.03400000  1.0
  H  H14  1  0.18890000  0.98480000  0.24520000  1.0
  H  H15  1  0.80300000  0.85260000  0.03700000  1.0
  H  H16  1  0.60480000  0.99640000  0.23680000  1.0
  H  H17  1  0.29930000  0.54280000  0.88160000  1.0
  H  H18  1  0.42380000  0.38560000  0.06900000  1.0
  H  H19  1  0.24110000  0.71340000  0.06820000  1.0
  H  H20  1  0.26350000  0.12640000  0.96600000  1.0
  H  H21  1  0.41890000  0.01520000  0.75480000  1.0
  H  H22  1  0.69260000  0.14740000  0.96300000  1.0
  H  H23  1  0.83800000  0.00360000  0.76320000  1.0
  H  H24  1  0.09210000  0.95720000  0.38160000  1.0
  H  H25  1  0.05940000  0.11440000  0.56900000  1.0
  H  H26  1  0.20450000  0.78660000  0.56820000  1.0
  H  H27  1  0.63990000  0.37360000  0.46600000  1.0
  H  H28  1  0.68410000  0.48480000  0.25480000  1.0
  H  H29  1  0.09000000  0.35260000  0.46300000  1.0
  H  H30  1  0.09160000  0.49640000  0.26320000  1.0
  H  H31  1  0.43090000  0.04280000  0.61840000  1.0
  H  H32  1  0.74280000  0.88560000  0.43100000  1.0
  H  H33  1  0.55930000  0.21340000  0.43180000  1.0
  H  H34  1  0.47950000  0.62640000  0.53400000  1.0
  H  H35  1  0.42370000  0.51520000  0.74520000  1.0
  H  H36  1  0.90560000  0.64740000  0.53700000  1.0
  H  H37  1  0.85120000  0.50360000  0.73680000  1.0
  C  C38  1  0.87750000  0.25000000  0.07200000  1.0
  C  C39  1  0.87449000  0.35620000  0.03182000  1.0
  C  C40  1  0.78401000  0.45546000  0.06812000  1.0
  C  C41  1  0.78343000  0.55212000  0.02962000  1.0
  C  C42  1  0.68075000  0.66052000  0.06658000  1.0
  C  C43  1  0.87757000  0.54940000  0.95626000  1.0
  C  C44  1  0.97179000  0.44966000  0.91956000  1.0
  C  C45  1  0.07232000  0.44962000  0.84034000  1.0
  C  C46  1  0.96553000  0.35332000  0.95702000  1.0
  C  C47  1  0.28931000  0.91072000  0.07886000  1.0
  C  C48  1  0.19905000  0.97094000  0.19356000  1.0
  C  C49  1  0.77693000  0.89788000  0.07926000  1.0
  C  C50  1  0.66918000  0.97572000  0.18752000  1.0
  C  C51  1  0.19950000  0.75000000  0.92800000  1.0
  C  C52  1  0.26251000  0.64380000  0.96818000  1.0
  C  C53  1  0.30759000  0.54454000  0.93188000  1.0
  C  C54  1  0.36517000  0.44788000  0.97038000  1.0
  C  C55  1  0.40785000  0.33948000  0.93342000  1.0
  C  C56  1  0.38323000  0.45060000  0.04374000  1.0
  C  C57  1  0.34101000  0.55034000  0.08044000  1.0
  C  C58  1  0.36228000  0.55038000  0.15966000  1.0
  C  C59  1  0.27587000  0.64668000  0.04298000  1.0
  C  C60  1  0.27889000  0.08928000  0.92114000  1.0
  C  C61  1  0.36355000  0.02906000  0.80644000  1.0
  C  C62  1  0.75407000  0.10212000  0.92074000  1.0
  C  C63  1  0.83242000  0.02428000  0.81248000  1.0
  C  C64  1  0.19950000  0.75000000  0.42800000  1.0
  C  C65  1  0.15631000  0.85620000  0.46818000  1.0
  C  C66  1  0.10213000  0.95546000  0.43188000  1.0
  C  C67  1  0.06305000  0.05212000  0.47038000  1.0
  C  C68  1  0.99733000  0.16052000  0.43342000  1.0
  C  C69  1  0.08383000  0.04940000  0.54374000  1.0
  C  C70  1  0.14135000  0.94966000  0.58044000  1.0
  C  C71  1  0.16266000  0.94962000  0.65966000  1.0
  C  C72  1  0.17255000  0.85332000  0.54298000  1.0
  C  C73  1  0.61817000  0.41072000  0.42114000  1.0
  C  C74  1  0.64261000  0.47094000  0.30644000  1.0
  C  C75  1  0.10619000  0.39788000  0.42074000  1.0
  C  C76  1  0.10670000  0.47572000  0.31248000  1.0
  C  C77  1  0.37750000  0.25000000  0.57200000  1.0
  C  C78  1  0.48069000  0.14380000  0.53182000  1.0
  C  C79  1  0.48947000  0.04454000  0.56812000  1.0
  C  C80  1  0.58555000  0.94788000  0.52962000  1.0
  C  C81  1  0.59127000  0.83948000  0.56658000  1.0
  C  C82  1  0.67697000  0.95060000  0.45626000  1.0
  C  C83  1  0.67145000  0.05034000  0.41956000  1.0
  C  C84  1  0.77194000  0.05038000  0.34034000  1.0
  C  C85  1  0.56885000  0.14668000  0.45702000  1.0
  C  C86  1  0.45003000  0.58928000  0.57886000  1.0
  C  C87  1  0.41999000  0.52906000  0.69356000  1.0
  C  C88  1  0.92481000  0.60212000  0.57926000  1.0
  C  C89  1  0.89490000  0.52428000  0.68752000  1.0
  N  N90  1  0.08906000  0.01380000  0.15828000  1.0
  N  N91  1  0.14803000  0.97428000  0.08326000  1.0
  N  N92  1  0.32724000  0.90518000  0.14674000  1.0
  N  N93  1  0.77369000  0.01662000  0.15320000  1.0
  N  N94  1  0.84399000  0.96518000  0.08244000  1.0
  N  N95  1  0.66582000  0.90090000  0.14366000  1.0
  N  N96  1  0.26114000  0.98620000  0.84172000  1.0
  N  N97  1  0.20557000  0.02572000  0.91674000  1.0
  N  N98  1  0.37916000  0.09482000  0.85326000  1.0
  N  N99  1  0.94351000  0.98338000  0.84680000  1.0
  N  N100  1  0.89161000  0.03482000  0.91756000  1.0
  N  N101  1  0.71038000  0.09910000  0.85634000  1.0
  N  N102  1  0.49734000  0.51380000  0.34172000  1.0
  N  N103  1  0.48129000  0.47428000  0.41674000  1.0
  N  N104  1  0.72398000  0.40518000  0.35326000  1.0
  N  N105  1  0.17689000  0.51662000  0.34680000  1.0
  N  N106  1  0.17643000  0.46518000  0.41756000  1.0
  N  N107  1  0.05948000  0.40090000  0.35634000  1.0
  N  N108  1  0.35286000  0.48620000  0.65828000  1.0
  N  N109  1  0.37231000  0.52572000  0.58326000  1.0
  N  N110  1  0.48242000  0.59482000  0.64674000  1.0
  N  N111  1  0.04031000  0.48338000  0.65320000  1.0
  N  N112  1  0.05917000  0.53482000  0.58244000  1.0
  N  N113  1  0.81672000  0.59910000  0.64366000  1.0
  O  O114  1  0.91734000  0.16836000  0.03116000  1.0
  O  O115  1  0.83912000  0.24984000  0.14612000  1.0
  O  O116  1  0.63574000  0.66310000  0.14082000  1.0
  O  O117  1  0.64338000  0.74322000  0.02602000  1.0
  O  O118  1  0.09423000  0.53358000  0.81376000  1.0
  O  O119  1  0.13398000  0.35916000  0.80128000  1.0
  O  O120  1  0.11686000  0.83164000  0.96884000  1.0
  O  O121  1  0.23508000  0.75016000  0.85388000  1.0
  O  O122  1  0.43966000  0.33690000  0.85918000  1.0
  O  O123  1  0.41262000  0.25678000  0.97398000  1.0
  O  O124  1  0.44157000  0.46642000  0.18624000  1.0
  O  O125  1  0.29442000  0.64084000  0.19872000  1.0
  O  O126  1  0.19850000  0.66836000  0.46884000  1.0
  O  O127  1  0.23524000  0.74984000  0.35388000  1.0
  O  O128  1  0.02656000  0.16310000  0.35918000  1.0
  O  O129  1  0.91940000  0.24322000  0.47398000  1.0
  O  O130  1  0.15799000  0.03358000  0.68624000  1.0
  O  O131  1  0.18526000  0.85916000  0.69872000  1.0
  O  O132  1  0.33570000  0.33164000  0.53116000  1.0
  O  O133  1  0.33896000  0.25016000  0.64612000  1.0
  O  O134  1  0.54884000  0.83690000  0.64082000  1.0
  O  O135  1  0.63660000  0.75678000  0.52602000  1.0
  O  O136  1  0.87781000  0.96642000  0.31376000  1.0
  O  O137  1  0.74314000  0.14084000  0.30128000  1.0
