# generated using pymatgen
data_MnH2(CO2)2
_symmetry_space_group_name_H-M   'P 1'
_cell_length_a   10.09460000
_cell_length_b   11.70470000
_cell_length_c   14.70980000
_cell_angle_alpha   91.50640000
_cell_angle_beta   90.00000000
_cell_angle_gamma   90.00000000
_symmetry_Int_Tables_number   1
_chemical_formula_structural   MnH2(CO2)2
_chemical_formula_sum   'Mn12 H24 C24 O48'
_cell_volume   1737.42493093
_cell_formula_units_Z   12
loop_
 _symmetry_equiv_pos_site_id
 _symmetry_equiv_pos_as_xyz
  1  'x, y, z'
loop_
 _atom_site_type_symbol
 _atom_site_label
 _atom_site_symmetry_multiplicity
 _atom_site_fract_x
 _atom_site_fract_y
 _atom_site_fract_z
 _atom_site_occupancy
  Mn  Mn0  1  0.91471000  0.75644000  0.13052000  1.0
  Mn  Mn1  1  0.09805000  0.73927000  0.31711000  1.0
  Mn  Mn2  1  0.41471000  0.74356000  0.36948000  1.0
  Mn  Mn3  1  0.59805000  0.76073000  0.18289000  1.0
  Mn  Mn4  1  0.08529000  0.24356000  0.86948000  1.0
  Mn  Mn5  1  0.90195000  0.26073000  0.68289000  1.0
  Mn  Mn6  1  0.58529000  0.25644000  0.63052000  1.0
  Mn  Mn7  1  0.40195000  0.23927000  0.81711000  1.0
  Mn  Mn8  1  0.00000000  0.50000000  0.00000000  1.0
  Mn  Mn9  1  0.50000000  0.00000000  0.50000000  1.0
  Mn  Mn10  1  0.00000000  0.00000000  0.00000000  1.0
  Mn  Mn11  1  0.50000000  0.50000000  0.50000000  1.0
  H  H12  1  0.74000000  0.85160000  0.36760000  1.0
  H  H13  1  0.02600000  0.48220000  0.26920000  1.0
  H  H14  1  0.61100000  0.55960000  0.03760000  1.0
  H  H15  1  0.20100000  0.96540000  0.23440000  1.0
  H  H16  1  0.16100000  0.69680000  0.92880000  1.0
  H  H17  1  0.70600000  0.01090000  0.02190000  1.0
  H  H18  1  0.24000000  0.64840000  0.13240000  1.0
  H  H19  1  0.52600000  0.01780000  0.23080000  1.0
  H  H20  1  0.11100000  0.94040000  0.46240000  1.0
  H  H21  1  0.70100000  0.53460000  0.26560000  1.0
  H  H22  1  0.66100000  0.80320000  0.57120000  1.0
  H  H23  1  0.20600000  0.48910000  0.47810000  1.0
  H  H24  1  0.26000000  0.14840000  0.63240000  1.0
  H  H25  1  0.97400000  0.51780000  0.73080000  1.0
  H  H26  1  0.38900000  0.44040000  0.96240000  1.0
  H  H27  1  0.79900000  0.03460000  0.76560000  1.0
  H  H28  1  0.83900000  0.30320000  0.07120000  1.0
  H  H29  1  0.29400000  0.98910000  0.97810000  1.0
  H  H30  1  0.76000000  0.35160000  0.86760000  1.0
  H  H31  1  0.47400000  0.98220000  0.76920000  1.0
  H  H32  1  0.88900000  0.05960000  0.53760000  1.0
  H  H33  1  0.29900000  0.46540000  0.73440000  1.0
  H  H34  1  0.33900000  0.19680000  0.42880000  1.0
  H  H35  1  0.79400000  0.51090000  0.52190000  1.0
  C  C36  1  0.81320000  0.82122000  0.33272000  1.0
  C  C37  1  0.00510000  0.51904000  0.21304000  1.0
  C  C38  1  0.70790000  0.57818000  0.04268000  1.0
  C  C39  1  0.13510000  0.94391000  0.18581000  1.0
  C  C40  1  0.10280000  0.74158000  0.96578000  1.0
  C  C41  1  0.71970000  0.94161000  0.05771000  1.0
  C  C42  1  0.31320000  0.67878000  0.16728000  1.0
  C  C43  1  0.50510000  0.98096000  0.28696000  1.0
  C  C44  1  0.20790000  0.92182000  0.45732000  1.0
  C  C45  1  0.63510000  0.55609000  0.31419000  1.0
  C  C46  1  0.60280000  0.75842000  0.53422000  1.0
  C  C47  1  0.21970000  0.55839000  0.44229000  1.0
  C  C48  1  0.18680000  0.17878000  0.66728000  1.0
  C  C49  1  0.99490000  0.48096000  0.78696000  1.0
  C  C50  1  0.29210000  0.42182000  0.95732000  1.0
  C  C51  1  0.86490000  0.05609000  0.81419000  1.0
  C  C52  1  0.89720000  0.25842000  0.03422000  1.0
  C  C53  1  0.28030000  0.05839000  0.94229000  1.0
  C  C54  1  0.68680000  0.32122000  0.83272000  1.0
  C  C55  1  0.49490000  0.01904000  0.71304000  1.0
  C  C56  1  0.79210000  0.07818000  0.54268000  1.0
  C  C57  1  0.36490000  0.44391000  0.68581000  1.0
  C  C58  1  0.39720000  0.24158000  0.46578000  1.0
  C  C59  1  0.78030000  0.44161000  0.55771000  1.0
  O  O60  1  0.79068000  0.80491000  0.24833000  1.0
  O  O61  1  0.91997000  0.80551000  0.37196000  1.0
  O  O62  1  0.99705000  0.62704000  0.21952000  1.0
  O  O63  1  0.99417000  0.46041000  0.14271000  1.0
  O  O64  1  0.73492000  0.65714000  0.10202000  1.0
  O  O65  1  0.78879000  0.52492000  0.99607000  1.0
  O  O66  1  0.07350000  0.85083000  0.19945000  1.0
  O  O67  1  0.11989000  0.00647000  0.12075000  1.0
  O  O68  1  0.02925000  0.68570000  0.02072000  1.0
  O  O69  1  0.10265000  0.84544000  0.95793000  1.0
  O  O70  1  0.83784000  0.90467000  0.06360000  1.0
  O  O71  1  0.61999000  0.89984000  0.09305000  1.0
  O  O72  1  0.29068000  0.69509000  0.25167000  1.0
  O  O73  1  0.41997000  0.69449000  0.12804000  1.0
  O  O74  1  0.49705000  0.87296000  0.28048000  1.0
  O  O75  1  0.49417000  0.03959000  0.35729000  1.0
  O  O76  1  0.23492000  0.84286000  0.39798000  1.0
  O  O77  1  0.28879000  0.97508000  0.50393000  1.0
  O  O78  1  0.57350000  0.64917000  0.30055000  1.0
  O  O79  1  0.61989000  0.49353000  0.37925000  1.0
  O  O80  1  0.52925000  0.81430000  0.47928000  1.0
  O  O81  1  0.60265000  0.65456000  0.54207000  1.0
  O  O82  1  0.33784000  0.59533000  0.43640000  1.0
  O  O83  1  0.11999000  0.60016000  0.40695000  1.0
  O  O84  1  0.20932000  0.19509000  0.75167000  1.0
  O  O85  1  0.08003000  0.19449000  0.62804000  1.0
  O  O86  1  0.00295000  0.37296000  0.78048000  1.0
  O  O87  1  0.00583000  0.53959000  0.85729000  1.0
  O  O88  1  0.26508000  0.34286000  0.89798000  1.0
  O  O89  1  0.21121000  0.47508000  0.00393000  1.0
  O  O90  1  0.92650000  0.14917000  0.80055000  1.0
  O  O91  1  0.88011000  0.99353000  0.87925000  1.0
  O  O92  1  0.97075000  0.31430000  0.97928000  1.0
  O  O93  1  0.89735000  0.15456000  0.04207000  1.0
  O  O94  1  0.16216000  0.09533000  0.93640000  1.0
  O  O95  1  0.38001000  0.10016000  0.90695000  1.0
  O  O96  1  0.70932000  0.30491000  0.74833000  1.0
  O  O97  1  0.58003000  0.30551000  0.87196000  1.0
  O  O98  1  0.50295000  0.12704000  0.71952000  1.0
  O  O99  1  0.50583000  0.96041000  0.64271000  1.0
  O  O100  1  0.76508000  0.15714000  0.60202000  1.0
  O  O101  1  0.71121000  0.02492000  0.49607000  1.0
  O  O102  1  0.42650000  0.35083000  0.69945000  1.0
  O  O103  1  0.38011000  0.50647000  0.62075000  1.0
  O  O104  1  0.47075000  0.18570000  0.52072000  1.0
  O  O105  1  0.39735000  0.34544000  0.45793000  1.0
  O  O106  1  0.66216000  0.40467000  0.56360000  1.0
  O  O107  1  0.88001000  0.39984000  0.59305000  1.0
