# generated using pymatgen
data_Zr3H32C56(O7F3)2
_symmetry_space_group_name_H-M   'P 1'
_cell_length_a   49.92000000
_cell_length_b   49.92000000
_cell_length_c   16.19500000
_cell_angle_alpha   90.00000000
_cell_angle_beta   90.00000000
_cell_angle_gamma   120.00000000
_symmetry_Int_Tables_number   1
_chemical_formula_structural   Zr3H32C56(O7F3)2
_chemical_formula_sum   'Zr18 H192 C336 O84 F36'
_cell_volume   34951.09104621
_cell_formula_units_Z   6
loop_
 _symmetry_equiv_pos_site_id
 _symmetry_equiv_pos_as_xyz
  1  'x, y, z'
loop_
 _atom_site_type_symbol
 _atom_site_label
 _atom_site_symmetry_multiplicity
 _atom_site_fract_x
 _atom_site_fract_y
 _atom_site_fract_z
 _atom_site_occupancy
  Zr  Zr0  1  0.46388000  0.00000000  0.10830000  1.0
  Zr  Zr1  1  0.00000000  0.46388000  0.10830000  1.0
  Zr  Zr2  1  0.53612000  0.53612000  0.10830000  1.0
  Zr  Zr3  1  0.53612000  0.00000000  0.10830000  1.0
  Zr  Zr4  1  0.00000000  0.53612000  0.10830000  1.0
  Zr  Zr5  1  0.46388000  0.46388000  0.10830000  1.0
  Zr  Zr6  1  0.00000000  0.46388000  0.89170000  1.0
  Zr  Zr7  1  0.46388000  0.00000000  0.89170000  1.0
  Zr  Zr8  1  0.53612000  0.53612000  0.89170000  1.0
  Zr  Zr9  1  0.00000000  0.53612000  0.89170000  1.0
  Zr  Zr10  1  0.53612000  0.00000000  0.89170000  1.0
  Zr  Zr11  1  0.46388000  0.46388000  0.89170000  1.0
  Zr  Zr12  1  0.52669000  0.05338000  0.00000000  1.0
  Zr  Zr13  1  0.94662000  0.47331000  0.00000000  1.0
  Zr  Zr14  1  0.52669000  0.47331000  0.00000000  1.0
  Zr  Zr15  1  0.47331000  0.94662000  0.00000000  1.0
  Zr  Zr16  1  0.05338000  0.52669000  0.00000000  1.0
  Zr  Zr17  1  0.47331000  0.52669000  0.00000000  1.0
  H  H18  1  0.45427000  0.07834000  0.22794000  1.0
  H  H19  1  0.45718000  0.12060000  0.30475000  1.0
  H  H20  1  0.54752000  0.17642000  0.22545000  1.0
  H  H21  1  0.54450000  0.13425000  0.14903000  1.0
  H  H22  1  0.45589000  0.16126000  0.31907000  1.0
  H  H23  1  0.45766000  0.20279000  0.39681000  1.0
  H  H24  1  0.55291000  0.24375000  0.41438000  1.0
  H  H25  1  0.55112000  0.20220000  0.33662000  1.0
  H  H26  1  0.92166000  0.37593000  0.22794000  1.0
  H  H27  1  0.87940000  0.33658000  0.30475000  1.0
  H  H28  1  0.82358000  0.37110000  0.22545000  1.0
  H  H29  1  0.86575000  0.41025000  0.14903000  1.0
  H  H30  1  0.83874000  0.29463000  0.31907000  1.0
  H  H31  1  0.79721000  0.25487000  0.39681000  1.0
  H  H32  1  0.75625000  0.30916000  0.41438000  1.0
  H  H33  1  0.79780000  0.34892000  0.33662000  1.0
  H  H34  1  0.62407000  0.54573000  0.22794000  1.0
  H  H35  1  0.66342000  0.54282000  0.30475000  1.0
  H  H36  1  0.62890000  0.45248000  0.22545000  1.0
  H  H37  1  0.58975000  0.45550000  0.14903000  1.0
  H  H38  1  0.70537000  0.54411000  0.31907000  1.0
  H  H39  1  0.74513000  0.54234000  0.39681000  1.0
  H  H40  1  0.69084000  0.44709000  0.41438000  1.0
  H  H41  1  0.65108000  0.44888000  0.33662000  1.0
  H  H42  1  0.54573000  0.92166000  0.22794000  1.0
  H  H43  1  0.54282000  0.87940000  0.30475000  1.0
  H  H44  1  0.45248000  0.82358000  0.22545000  1.0
  H  H45  1  0.45550000  0.86575000  0.14903000  1.0
  H  H46  1  0.54411000  0.83874000  0.31907000  1.0
  H  H47  1  0.54234000  0.79721000  0.39681000  1.0
  H  H48  1  0.44709000  0.75625000  0.41438000  1.0
  H  H49  1  0.44888000  0.79780000  0.33662000  1.0
  H  H50  1  0.07834000  0.62407000  0.22794000  1.0
  H  H51  1  0.12060000  0.66342000  0.30475000  1.0
  H  H52  1  0.17642000  0.62890000  0.22545000  1.0
  H  H53  1  0.13425000  0.58975000  0.14903000  1.0
  H  H54  1  0.16126000  0.70537000  0.31907000  1.0
  H  H55  1  0.20279000  0.74513000  0.39681000  1.0
  H  H56  1  0.24375000  0.69084000  0.41438000  1.0
  H  H57  1  0.20220000  0.65108000  0.33662000  1.0
  H  H58  1  0.37593000  0.45427000  0.22794000  1.0
  H  H59  1  0.33658000  0.45718000  0.30475000  1.0
  H  H60  1  0.37110000  0.54752000  0.22545000  1.0
  H  H61  1  0.41025000  0.54450000  0.14903000  1.0
  H  H62  1  0.29463000  0.45589000  0.31907000  1.0
  H  H63  1  0.25487000  0.45766000  0.39681000  1.0
  H  H64  1  0.30916000  0.55291000  0.41438000  1.0
  H  H65  1  0.34892000  0.55112000  0.33662000  1.0
  H  H66  1  0.07834000  0.45427000  0.77206000  1.0
  H  H67  1  0.12060000  0.45718000  0.69525000  1.0
  H  H68  1  0.17642000  0.54752000  0.77455000  1.0
  H  H69  1  0.13425000  0.54450000  0.85097000  1.0
  H  H70  1  0.16126000  0.45589000  0.68093000  1.0
  H  H71  1  0.20279000  0.45766000  0.60319000  1.0
  H  H72  1  0.24375000  0.55291000  0.58562000  1.0
  H  H73  1  0.20220000  0.55112000  0.66338000  1.0
  H  H74  1  0.37593000  0.92166000  0.77206000  1.0
  H  H75  1  0.33658000  0.87940000  0.69525000  1.0
  H  H76  1  0.37110000  0.82358000  0.77455000  1.0
  H  H77  1  0.41025000  0.86575000  0.85097000  1.0
  H  H78  1  0.29463000  0.83874000  0.68093000  1.0
  H  H79  1  0.25487000  0.79721000  0.60319000  1.0
  H  H80  1  0.30916000  0.75625000  0.58562000  1.0
  H  H81  1  0.34892000  0.79780000  0.66338000  1.0
  H  H82  1  0.54573000  0.62407000  0.77206000  1.0
  H  H83  1  0.54282000  0.66342000  0.69525000  1.0
  H  H84  1  0.45248000  0.62890000  0.77455000  1.0
  H  H85  1  0.45550000  0.58975000  0.85097000  1.0
  H  H86  1  0.54411000  0.70537000  0.68093000  1.0
  H  H87  1  0.54234000  0.74513000  0.60319000  1.0
  H  H88  1  0.44709000  0.69084000  0.58562000  1.0
  H  H89  1  0.44888000  0.65108000  0.66338000  1.0
  H  H90  1  0.92166000  0.54573000  0.77206000  1.0
  H  H91  1  0.87940000  0.54282000  0.69525000  1.0
  H  H92  1  0.82358000  0.45248000  0.77455000  1.0
  H  H93  1  0.86575000  0.45550000  0.85097000  1.0
  H  H94  1  0.83874000  0.54411000  0.68093000  1.0
  H  H95  1  0.79721000  0.54234000  0.60319000  1.0
  H  H96  1  0.75625000  0.44709000  0.58562000  1.0
  H  H97  1  0.79780000  0.44888000  0.66338000  1.0
  H  H98  1  0.62407000  0.07834000  0.77206000  1.0
  H  H99  1  0.66342000  0.12060000  0.69525000  1.0
  H  H100  1  0.62890000  0.17642000  0.77455000  1.0
  H  H101  1  0.58975000  0.13425000  0.85097000  1.0
  H  H102  1  0.70537000  0.16126000  0.68093000  1.0
  H  H103  1  0.74513000  0.20279000  0.60319000  1.0
  H  H104  1  0.69084000  0.24375000  0.58562000  1.0
  H  H105  1  0.65108000  0.20220000  0.66338000  1.0
  H  H106  1  0.45427000  0.37593000  0.77206000  1.0
  H  H107  1  0.45718000  0.33658000  0.69525000  1.0
  H  H108  1  0.54752000  0.37110000  0.77455000  1.0
  H  H109  1  0.54450000  0.41025000  0.85097000  1.0
  H  H110  1  0.45589000  0.29463000  0.68093000  1.0
  H  H111  1  0.45766000  0.25487000  0.60319000  1.0
  H  H112  1  0.55291000  0.30916000  0.58562000  1.0
  H  H113  1  0.55112000  0.34892000  0.66338000  1.0
  H  H114  1  0.54573000  0.92166000  0.77206000  1.0
  H  H115  1  0.54282000  0.87940000  0.69525000  1.0
  H  H116  1  0.45248000  0.82358000  0.77455000  1.0
  H  H117  1  0.45550000  0.86575000  0.85097000  1.0
  H  H118  1  0.54411000  0.83874000  0.68093000  1.0
  H  H119  1  0.54234000  0.79721000  0.60319000  1.0
  H  H120  1  0.44709000  0.75625000  0.58562000  1.0
  H  H121  1  0.44888000  0.79780000  0.66338000  1.0
  H  H122  1  0.07834000  0.62407000  0.77206000  1.0
  H  H123  1  0.12060000  0.66342000  0.69525000  1.0
  H  H124  1  0.17642000  0.62890000  0.77455000  1.0
  H  H125  1  0.13425000  0.58975000  0.85097000  1.0
  H  H126  1  0.16126000  0.70537000  0.68093000  1.0
  H  H127  1  0.20279000  0.74513000  0.60319000  1.0
  H  H128  1  0.24375000  0.69084000  0.58562000  1.0
  H  H129  1  0.20220000  0.65108000  0.66338000  1.0
  H  H130  1  0.37593000  0.45427000  0.77206000  1.0
  H  H131  1  0.33658000  0.45718000  0.69525000  1.0
  H  H132  1  0.37110000  0.54752000  0.77455000  1.0
  H  H133  1  0.41025000  0.54450000  0.85097000  1.0
  H  H134  1  0.29463000  0.45589000  0.68093000  1.0
  H  H135  1  0.25487000  0.45766000  0.60319000  1.0
  H  H136  1  0.30916000  0.55291000  0.58562000  1.0
  H  H137  1  0.34892000  0.55112000  0.66338000  1.0
  H  H138  1  0.45427000  0.07834000  0.77206000  1.0
  H  H139  1  0.45718000  0.12060000  0.69525000  1.0
  H  H140  1  0.54752000  0.17642000  0.77455000  1.0
  H  H141  1  0.54450000  0.13425000  0.85097000  1.0
  H  H142  1  0.45589000  0.16126000  0.68093000  1.0
  H  H143  1  0.45766000  0.20279000  0.60319000  1.0
  H  H144  1  0.55291000  0.24375000  0.58562000  1.0
  H  H145  1  0.55112000  0.20220000  0.66338000  1.0
  H  H146  1  0.92166000  0.37593000  0.77206000  1.0
  H  H147  1  0.87940000  0.33658000  0.69525000  1.0
  H  H148  1  0.82358000  0.37110000  0.77455000  1.0
  H  H149  1  0.86575000  0.41025000  0.85097000  1.0
  H  H150  1  0.83874000  0.29463000  0.68093000  1.0
  H  H151  1  0.79721000  0.25487000  0.60319000  1.0
  H  H152  1  0.75625000  0.30916000  0.58562000  1.0
  H  H153  1  0.79780000  0.34892000  0.66338000  1.0
  H  H154  1  0.62407000  0.54573000  0.77206000  1.0
  H  H155  1  0.66342000  0.54282000  0.69525000  1.0
  H  H156  1  0.62890000  0.45248000  0.77455000  1.0
  H  H157  1  0.58975000  0.45550000  0.85097000  1.0
  H  H158  1  0.70537000  0.54411000  0.68093000  1.0
  H  H159  1  0.74513000  0.54234000  0.60319000  1.0
  H  H160  1  0.69084000  0.44709000  0.58562000  1.0
  H  H161  1  0.65108000  0.44888000  0.66338000  1.0
  H  H162  1  0.92166000  0.54573000  0.22794000  1.0
  H  H163  1  0.87940000  0.54282000  0.30475000  1.0
  H  H164  1  0.82358000  0.45248000  0.22545000  1.0
  H  H165  1  0.86575000  0.45550000  0.14903000  1.0
  H  H166  1  0.83874000  0.54411000  0.31907000  1.0
  H  H167  1  0.79721000  0.54234000  0.39681000  1.0
  H  H168  1  0.75625000  0.44709000  0.41438000  1.0
  H  H169  1  0.79780000  0.44888000  0.33662000  1.0
  H  H170  1  0.62407000  0.07834000  0.22794000  1.0
  H  H171  1  0.66342000  0.12060000  0.30475000  1.0
  H  H172  1  0.62890000  0.17642000  0.22545000  1.0
  H  H173  1  0.58975000  0.13425000  0.14903000  1.0
  H  H174  1  0.70537000  0.16126000  0.31907000  1.0
  H  H175  1  0.74513000  0.20279000  0.39681000  1.0
  H  H176  1  0.69084000  0.24375000  0.41438000  1.0
  H  H177  1  0.65108000  0.20220000  0.33662000  1.0
  H  H178  1  0.45427000  0.37593000  0.22794000  1.0
  H  H179  1  0.45718000  0.33658000  0.30475000  1.0
  H  H180  1  0.54752000  0.37110000  0.22545000  1.0
  H  H181  1  0.54450000  0.41025000  0.14903000  1.0
  H  H182  1  0.45589000  0.29463000  0.31907000  1.0
  H  H183  1  0.45766000  0.25487000  0.39681000  1.0
  H  H184  1  0.55291000  0.30916000  0.41438000  1.0
  H  H185  1  0.55112000  0.34892000  0.33662000  1.0
  H  H186  1  0.07834000  0.45427000  0.22794000  1.0
  H  H187  1  0.12060000  0.45718000  0.30475000  1.0
  H  H188  1  0.17642000  0.54752000  0.22545000  1.0
  H  H189  1  0.13425000  0.54450000  0.14903000  1.0
  H  H190  1  0.16126000  0.45589000  0.31907000  1.0
  H  H191  1  0.20279000  0.45766000  0.39681000  1.0
  H  H192  1  0.24375000  0.55291000  0.41438000  1.0
  H  H193  1  0.20220000  0.55112000  0.33662000  1.0
  H  H194  1  0.37593000  0.92166000  0.22794000  1.0
  H  H195  1  0.33658000  0.87940000  0.30475000  1.0
  H  H196  1  0.37110000  0.82358000  0.22545000  1.0
  H  H197  1  0.41025000  0.86575000  0.14903000  1.0
  H  H198  1  0.29463000  0.83874000  0.31907000  1.0
  H  H199  1  0.25487000  0.79721000  0.39681000  1.0
  H  H200  1  0.30916000  0.75625000  0.41438000  1.0
  H  H201  1  0.34892000  0.79780000  0.33662000  1.0
  H  H202  1  0.54573000  0.62407000  0.22794000  1.0
  H  H203  1  0.54282000  0.66342000  0.30475000  1.0
  H  H204  1  0.45248000  0.62890000  0.22545000  1.0
  H  H205  1  0.45550000  0.58975000  0.14903000  1.0
  H  H206  1  0.54411000  0.70537000  0.31907000  1.0
  H  H207  1  0.54234000  0.74513000  0.39681000  1.0
  H  H208  1  0.44709000  0.69084000  0.41438000  1.0
  H  H209  1  0.44888000  0.65108000  0.33662000  1.0
  C  C210  1  0.49728000  0.07573000  0.13295000  1.0
  C  C211  1  0.49915000  0.10284000  0.18222000  1.0
  C  C212  1  0.47376000  0.09887000  0.22750000  1.0
  C  C213  1  0.47545000  0.12346000  0.27218000  1.0
  C  C214  1  0.50223000  0.15226000  0.27269000  1.0
  C  C215  1  0.52793000  0.15597000  0.22628000  1.0
  C  C216  1  0.52623000  0.13139000  0.18161000  1.0
  C  C217  1  0.50336000  0.17834000  0.32150000  1.0
  C  C218  1  0.47618000  0.17852000  0.33902000  1.0
  C  C219  1  0.47722000  0.20269000  0.38425000  1.0
  C  C220  1  0.50541000  0.22670000  0.41202000  1.0
  C  C221  1  0.53261000  0.22650000  0.39446000  1.0
  C  C222  1  0.53157000  0.20233000  0.34922000  1.0
  C  C223  1  0.92427000  0.42155000  0.13295000  1.0
  C  C224  1  0.89716000  0.39631000  0.18222000  1.0
  C  C225  1  0.90113000  0.37489000  0.22750000  1.0
  C  C226  1  0.87654000  0.35199000  0.27218000  1.0
  C  C227  1  0.84774000  0.34997000  0.27269000  1.0
  C  C228  1  0.84403000  0.37196000  0.22628000  1.0
  C  C229  1  0.86861000  0.39484000  0.18161000  1.0
  C  C230  1  0.82166000  0.32502000  0.32150000  1.0
  C  C231  1  0.82148000  0.29766000  0.33902000  1.0
  C  C232  1  0.79731000  0.27453000  0.38425000  1.0
  C  C233  1  0.77330000  0.27871000  0.41202000  1.0
  C  C234  1  0.77350000  0.30611000  0.39446000  1.0
  C  C235  1  0.79767000  0.32924000  0.34922000  1.0
  C  C236  1  0.57845000  0.50272000  0.13295000  1.0
  C  C237  1  0.60369000  0.50085000  0.18222000  1.0
  C  C238  1  0.62511000  0.52624000  0.22750000  1.0
  C  C239  1  0.64801000  0.52455000  0.27218000  1.0
  C  C240  1  0.65003000  0.49777000  0.27269000  1.0
  C  C241  1  0.62804000  0.47207000  0.22628000  1.0
  C  C242  1  0.60516000  0.47377000  0.18161000  1.0
  C  C243  1  0.67498000  0.49664000  0.32150000  1.0
  C  C244  1  0.70234000  0.52382000  0.33902000  1.0
  C  C245  1  0.72547000  0.52278000  0.38425000  1.0
  C  C246  1  0.72129000  0.49459000  0.41202000  1.0
  C  C247  1  0.69389000  0.46739000  0.39446000  1.0
  C  C248  1  0.67076000  0.46843000  0.34922000  1.0
  C  C249  1  0.50272000  0.92427000  0.13295000  1.0
  C  C250  1  0.50085000  0.89716000  0.18222000  1.0
  C  C251  1  0.52624000  0.90113000  0.22750000  1.0
  C  C252  1  0.52455000  0.87654000  0.27218000  1.0
  C  C253  1  0.49777000  0.84774000  0.27269000  1.0
  C  C254  1  0.47207000  0.84403000  0.22628000  1.0
  C  C255  1  0.47377000  0.86861000  0.18161000  1.0
  C  C256  1  0.49664000  0.82166000  0.32150000  1.0
  C  C257  1  0.52382000  0.82148000  0.33902000  1.0
  C  C258  1  0.52278000  0.79731000  0.38425000  1.0
  C  C259  1  0.49459000  0.77330000  0.41202000  1.0
  C  C260  1  0.46739000  0.77350000  0.39446000  1.0
  C  C261  1  0.46843000  0.79767000  0.34922000  1.0
  C  C262  1  0.07573000  0.57845000  0.13295000  1.0
  C  C263  1  0.10284000  0.60369000  0.18222000  1.0
  C  C264  1  0.09887000  0.62511000  0.22750000  1.0
  C  C265  1  0.12346000  0.64801000  0.27218000  1.0
  C  C266  1  0.15226000  0.65003000  0.27269000  1.0
  C  C267  1  0.15597000  0.62804000  0.22628000  1.0
  C  C268  1  0.13139000  0.60516000  0.18161000  1.0
  C  C269  1  0.17834000  0.67498000  0.32150000  1.0
  C  C270  1  0.17852000  0.70234000  0.33902000  1.0
  C  C271  1  0.20269000  0.72547000  0.38425000  1.0
  C  C272  1  0.22670000  0.72129000  0.41202000  1.0
  C  C273  1  0.22650000  0.69389000  0.39446000  1.0
  C  C274  1  0.20233000  0.67076000  0.34922000  1.0
  C  C275  1  0.42155000  0.49728000  0.13295000  1.0
  C  C276  1  0.39631000  0.49915000  0.18222000  1.0
  C  C277  1  0.37489000  0.47376000  0.22750000  1.0
  C  C278  1  0.35199000  0.47545000  0.27218000  1.0
  C  C279  1  0.34997000  0.50223000  0.27269000  1.0
  C  C280  1  0.37196000  0.52793000  0.22628000  1.0
  C  C281  1  0.39484000  0.52623000  0.18161000  1.0
  C  C282  1  0.32502000  0.50336000  0.32150000  1.0
  C  C283  1  0.29766000  0.47618000  0.33902000  1.0
  C  C284  1  0.27453000  0.47722000  0.38425000  1.0
  C  C285  1  0.27871000  0.50541000  0.41202000  1.0
  C  C286  1  0.30611000  0.53261000  0.39446000  1.0
  C  C287  1  0.32924000  0.53157000  0.34922000  1.0
  C  C288  1  0.07573000  0.49728000  0.86705000  1.0
  C  C289  1  0.10284000  0.49915000  0.81778000  1.0
  C  C290  1  0.09887000  0.47376000  0.77250000  1.0
  C  C291  1  0.12346000  0.47545000  0.72782000  1.0
  C  C292  1  0.15226000  0.50223000  0.72731000  1.0
  C  C293  1  0.15597000  0.52793000  0.77372000  1.0
  C  C294  1  0.13139000  0.52623000  0.81839000  1.0
  C  C295  1  0.17834000  0.50336000  0.67850000  1.0
  C  C296  1  0.17852000  0.47618000  0.66098000  1.0
  C  C297  1  0.20269000  0.47722000  0.61575000  1.0
  C  C298  1  0.22670000  0.50541000  0.58798000  1.0
  C  C299  1  0.22650000  0.53261000  0.60554000  1.0
  C  C300  1  0.20233000  0.53157000  0.65078000  1.0
  C  C301  1  0.42155000  0.92427000  0.86705000  1.0
  C  C302  1  0.39631000  0.89716000  0.81778000  1.0
  C  C303  1  0.37489000  0.90113000  0.77250000  1.0
  C  C304  1  0.35199000  0.87654000  0.72782000  1.0
  C  C305  1  0.34997000  0.84774000  0.72731000  1.0
  C  C306  1  0.37196000  0.84403000  0.77372000  1.0
  C  C307  1  0.39484000  0.86861000  0.81839000  1.0
  C  C308  1  0.32502000  0.82166000  0.67850000  1.0
  C  C309  1  0.29766000  0.82148000  0.66098000  1.0
  C  C310  1  0.27453000  0.79731000  0.61575000  1.0
  C  C311  1  0.27871000  0.77330000  0.58798000  1.0
  C  C312  1  0.30611000  0.77350000  0.60554000  1.0
  C  C313  1  0.32924000  0.79767000  0.65078000  1.0
  C  C314  1  0.50272000  0.57845000  0.86705000  1.0
  C  C315  1  0.50085000  0.60369000  0.81778000  1.0
  C  C316  1  0.52624000  0.62511000  0.77250000  1.0
  C  C317  1  0.52455000  0.64801000  0.72782000  1.0
  C  C318  1  0.49777000  0.65003000  0.72731000  1.0
  C  C319  1  0.47207000  0.62804000  0.77372000  1.0
  C  C320  1  0.47377000  0.60516000  0.81839000  1.0
  C  C321  1  0.49664000  0.67498000  0.67850000  1.0
  C  C322  1  0.52382000  0.70234000  0.66098000  1.0
  C  C323  1  0.52278000  0.72547000  0.61575000  1.0
  C  C324  1  0.49459000  0.72129000  0.58798000  1.0
  C  C325  1  0.46739000  0.69389000  0.60554000  1.0
  C  C326  1  0.46843000  0.67076000  0.65078000  1.0
  C  C327  1  0.92427000  0.50272000  0.86705000  1.0
  C  C328  1  0.89716000  0.50085000  0.81778000  1.0
  C  C329  1  0.90113000  0.52624000  0.77250000  1.0
  C  C330  1  0.87654000  0.52455000  0.72782000  1.0
  C  C331  1  0.84774000  0.49777000  0.72731000  1.0
  C  C332  1  0.84403000  0.47207000  0.77372000  1.0
  C  C333  1  0.86861000  0.47377000  0.81839000  1.0
  C  C334  1  0.82166000  0.49664000  0.67850000  1.0
  C  C335  1  0.82148000  0.52382000  0.66098000  1.0
  C  C336  1  0.79731000  0.52278000  0.61575000  1.0
  C  C337  1  0.77330000  0.49459000  0.58798000  1.0
  C  C338  1  0.77350000  0.46739000  0.60554000  1.0
  C  C339  1  0.79767000  0.46843000  0.65078000  1.0
  C  C340  1  0.57845000  0.07573000  0.86705000  1.0
  C  C341  1  0.60369000  0.10284000  0.81778000  1.0
  C  C342  1  0.62511000  0.09887000  0.77250000  1.0
  C  C343  1  0.64801000  0.12346000  0.72782000  1.0
  C  C344  1  0.65003000  0.15226000  0.72731000  1.0
  C  C345  1  0.62804000  0.15597000  0.77372000  1.0
  C  C346  1  0.60516000  0.13139000  0.81839000  1.0
  C  C347  1  0.67498000  0.17834000  0.67850000  1.0
  C  C348  1  0.70234000  0.17852000  0.66098000  1.0
  C  C349  1  0.72547000  0.20269000  0.61575000  1.0
  C  C350  1  0.72129000  0.22670000  0.58798000  1.0
  C  C351  1  0.69389000  0.22650000  0.60554000  1.0
  C  C352  1  0.67076000  0.20233000  0.65078000  1.0
  C  C353  1  0.49728000  0.42155000  0.86705000  1.0
  C  C354  1  0.49915000  0.39631000  0.81778000  1.0
  C  C355  1  0.47376000  0.37489000  0.77250000  1.0
  C  C356  1  0.47545000  0.35199000  0.72782000  1.0
  C  C357  1  0.50223000  0.34997000  0.72731000  1.0
  C  C358  1  0.52793000  0.37196000  0.77372000  1.0
  C  C359  1  0.52623000  0.39484000  0.81839000  1.0
  C  C360  1  0.50336000  0.32502000  0.67850000  1.0
  C  C361  1  0.47618000  0.29766000  0.66098000  1.0
  C  C362  1  0.47722000  0.27453000  0.61575000  1.0
  C  C363  1  0.50541000  0.27871000  0.58798000  1.0
  C  C364  1  0.53261000  0.30611000  0.60554000  1.0
  C  C365  1  0.53157000  0.32924000  0.65078000  1.0
  C  C366  1  0.50272000  0.92427000  0.86705000  1.0
  C  C367  1  0.50085000  0.89716000  0.81778000  1.0
  C  C368  1  0.52624000  0.90113000  0.77250000  1.0
  C  C369  1  0.52455000  0.87654000  0.72782000  1.0
  C  C370  1  0.49777000  0.84774000  0.72731000  1.0
  C  C371  1  0.47207000  0.84403000  0.77372000  1.0
  C  C372  1  0.47377000  0.86861000  0.81839000  1.0
  C  C373  1  0.49664000  0.82166000  0.67850000  1.0
  C  C374  1  0.52382000  0.82148000  0.66098000  1.0
  C  C375  1  0.52278000  0.79731000  0.61575000  1.0
  C  C376  1  0.49459000  0.77330000  0.58798000  1.0
  C  C377  1  0.46739000  0.77350000  0.60554000  1.0
  C  C378  1  0.46843000  0.79767000  0.65078000  1.0
  C  C379  1  0.07573000  0.57845000  0.86705000  1.0
  C  C380  1  0.10284000  0.60369000  0.81778000  1.0
  C  C381  1  0.09887000  0.62511000  0.77250000  1.0
  C  C382  1  0.12346000  0.64801000  0.72782000  1.0
  C  C383  1  0.15226000  0.65003000  0.72731000  1.0
  C  C384  1  0.15597000  0.62804000  0.77372000  1.0
  C  C385  1  0.13139000  0.60516000  0.81839000  1.0
  C  C386  1  0.17834000  0.67498000  0.67850000  1.0
  C  C387  1  0.17852000  0.70234000  0.66098000  1.0
  C  C388  1  0.20269000  0.72547000  0.61575000  1.0
  C  C389  1  0.22670000  0.72129000  0.58798000  1.0
  C  C390  1  0.22650000  0.69389000  0.60554000  1.0
  C  C391  1  0.20233000  0.67076000  0.65078000  1.0
  C  C392  1  0.42155000  0.49728000  0.86705000  1.0
  C  C393  1  0.39631000  0.49915000  0.81778000  1.0
  C  C394  1  0.37489000  0.47376000  0.77250000  1.0
  C  C395  1  0.35199000  0.47545000  0.72782000  1.0
  C  C396  1  0.34997000  0.50223000  0.72731000  1.0
  C  C397  1  0.37196000  0.52793000  0.77372000  1.0
  C  C398  1  0.39484000  0.52623000  0.81839000  1.0
  C  C399  1  0.32502000  0.50336000  0.67850000  1.0
  C  C400  1  0.29766000  0.47618000  0.66098000  1.0
  C  C401  1  0.27453000  0.47722000  0.61575000  1.0
  C  C402  1  0.27871000  0.50541000  0.58798000  1.0
  C  C403  1  0.30611000  0.53261000  0.60554000  1.0
  C  C404  1  0.32924000  0.53157000  0.65078000  1.0
  C  C405  1  0.49728000  0.07573000  0.86705000  1.0
  C  C406  1  0.49915000  0.10284000  0.81778000  1.0
  C  C407  1  0.47376000  0.09887000  0.77250000  1.0
  C  C408  1  0.47545000  0.12346000  0.72782000  1.0
  C  C409  1  0.50223000  0.15226000  0.72731000  1.0
  C  C410  1  0.52793000  0.15597000  0.77372000  1.0
  C  C411  1  0.52623000  0.13139000  0.81839000  1.0
  C  C412  1  0.50336000  0.17834000  0.67850000  1.0
  C  C413  1  0.47618000  0.17852000  0.66098000  1.0
  C  C414  1  0.47722000  0.20269000  0.61575000  1.0
  C  C415  1  0.50541000  0.22670000  0.58798000  1.0
  C  C416  1  0.53261000  0.22650000  0.60554000  1.0
  C  C417  1  0.53157000  0.20233000  0.65078000  1.0
  C  C418  1  0.92427000  0.42155000  0.86705000  1.0
  C  C419  1  0.89716000  0.39631000  0.81778000  1.0
  C  C420  1  0.90113000  0.37489000  0.77250000  1.0
  C  C421  1  0.87654000  0.35199000  0.72782000  1.0
  C  C422  1  0.84774000  0.34997000  0.72731000  1.0
  C  C423  1  0.84403000  0.37196000  0.77372000  1.0
  C  C424  1  0.86861000  0.39484000  0.81839000  1.0
  C  C425  1  0.82166000  0.32502000  0.67850000  1.0
  C  C426  1  0.82148000  0.29766000  0.66098000  1.0
  C  C427  1  0.79731000  0.27453000  0.61575000  1.0
  C  C428  1  0.77330000  0.27871000  0.58798000  1.0
  C  C429  1  0.77350000  0.30611000  0.60554000  1.0
  C  C430  1  0.79767000  0.32924000  0.65078000  1.0
  C  C431  1  0.57845000  0.50272000  0.86705000  1.0
  C  C432  1  0.60369000  0.50085000  0.81778000  1.0
  C  C433  1  0.62511000  0.52624000  0.77250000  1.0
  C  C434  1  0.64801000  0.52455000  0.72782000  1.0
  C  C435  1  0.65003000  0.49777000  0.72731000  1.0
  C  C436  1  0.62804000  0.47207000  0.77372000  1.0
  C  C437  1  0.60516000  0.47377000  0.81839000  1.0
  C  C438  1  0.67498000  0.49664000  0.67850000  1.0
  C  C439  1  0.70234000  0.52382000  0.66098000  1.0
  C  C440  1  0.72547000  0.52278000  0.61575000  1.0
  C  C441  1  0.72129000  0.49459000  0.58798000  1.0
  C  C442  1  0.69389000  0.46739000  0.60554000  1.0
  C  C443  1  0.67076000  0.46843000  0.65078000  1.0
  C  C444  1  0.92427000  0.50272000  0.13295000  1.0
  C  C445  1  0.89716000  0.50085000  0.18222000  1.0
  C  C446  1  0.90113000  0.52624000  0.22750000  1.0
  C  C447  1  0.87654000  0.52455000  0.27218000  1.0
  C  C448  1  0.84774000  0.49777000  0.27269000  1.0
  C  C449  1  0.84403000  0.47207000  0.22628000  1.0
  C  C450  1  0.86861000  0.47377000  0.18161000  1.0
  C  C451  1  0.82166000  0.49664000  0.32150000  1.0
  C  C452  1  0.82148000  0.52382000  0.33902000  1.0
  C  C453  1  0.79731000  0.52278000  0.38425000  1.0
  C  C454  1  0.77330000  0.49459000  0.41202000  1.0
  C  C455  1  0.77350000  0.46739000  0.39446000  1.0
  C  C456  1  0.79767000  0.46843000  0.34922000  1.0
  C  C457  1  0.57845000  0.07573000  0.13295000  1.0
  C  C458  1  0.60369000  0.10284000  0.18222000  1.0
  C  C459  1  0.62511000  0.09887000  0.22750000  1.0
  C  C460  1  0.64801000  0.12346000  0.27218000  1.0
  C  C461  1  0.65003000  0.15226000  0.27269000  1.0
  C  C462  1  0.62804000  0.15597000  0.22628000  1.0
  C  C463  1  0.60516000  0.13139000  0.18161000  1.0
  C  C464  1  0.67498000  0.17834000  0.32150000  1.0
  C  C465  1  0.70234000  0.17852000  0.33902000  1.0
  C  C466  1  0.72547000  0.20269000  0.38425000  1.0
  C  C467  1  0.72129000  0.22670000  0.41202000  1.0
  C  C468  1  0.69389000  0.22650000  0.39446000  1.0
  C  C469  1  0.67076000  0.20233000  0.34922000  1.0
  C  C470  1  0.49728000  0.42155000  0.13295000  1.0
  C  C471  1  0.49915000  0.39631000  0.18222000  1.0
  C  C472  1  0.47376000  0.37489000  0.22750000  1.0
  C  C473  1  0.47545000  0.35199000  0.27218000  1.0
  C  C474  1  0.50223000  0.34997000  0.27269000  1.0
  C  C475  1  0.52793000  0.37196000  0.22628000  1.0
  C  C476  1  0.52623000  0.39484000  0.18161000  1.0
  C  C477  1  0.50336000  0.32502000  0.32150000  1.0
  C  C478  1  0.47618000  0.29766000  0.33902000  1.0
  C  C479  1  0.47722000  0.27453000  0.38425000  1.0
  C  C480  1  0.50541000  0.27871000  0.41202000  1.0
  C  C481  1  0.53261000  0.30611000  0.39446000  1.0
  C  C482  1  0.53157000  0.32924000  0.34922000  1.0
  C  C483  1  0.07573000  0.49728000  0.13295000  1.0
  C  C484  1  0.10284000  0.49915000  0.18222000  1.0
  C  C485  1  0.09887000  0.47376000  0.22750000  1.0
  C  C486  1  0.12346000  0.47545000  0.27218000  1.0
  C  C487  1  0.15226000  0.50223000  0.27269000  1.0
  C  C488  1  0.15597000  0.52793000  0.22628000  1.0
  C  C489  1  0.13139000  0.52623000  0.18161000  1.0
  C  C490  1  0.17834000  0.50336000  0.32150000  1.0
  C  C491  1  0.17852000  0.47618000  0.33902000  1.0
  C  C492  1  0.20269000  0.47722000  0.38425000  1.0
  C  C493  1  0.22670000  0.50541000  0.41202000  1.0
  C  C494  1  0.22650000  0.53261000  0.39446000  1.0
  C  C495  1  0.20233000  0.53157000  0.34922000  1.0
  C  C496  1  0.42155000  0.92427000  0.13295000  1.0
  C  C497  1  0.39631000  0.89716000  0.18222000  1.0
  C  C498  1  0.37489000  0.90113000  0.22750000  1.0
  C  C499  1  0.35199000  0.87654000  0.27218000  1.0
  C  C500  1  0.34997000  0.84774000  0.27269000  1.0
  C  C501  1  0.37196000  0.84403000  0.22628000  1.0
  C  C502  1  0.39484000  0.86861000  0.18161000  1.0
  C  C503  1  0.32502000  0.82166000  0.32150000  1.0
  C  C504  1  0.29766000  0.82148000  0.33902000  1.0
  C  C505  1  0.27453000  0.79731000  0.38425000  1.0
  C  C506  1  0.27871000  0.77330000  0.41202000  1.0
  C  C507  1  0.30611000  0.77350000  0.39446000  1.0
  C  C508  1  0.32924000  0.79767000  0.34922000  1.0
  C  C509  1  0.50272000  0.57845000  0.13295000  1.0
  C  C510  1  0.50085000  0.60369000  0.18222000  1.0
  C  C511  1  0.52624000  0.62511000  0.22750000  1.0
  C  C512  1  0.52455000  0.64801000  0.27218000  1.0
  C  C513  1  0.49777000  0.65003000  0.27269000  1.0
  C  C514  1  0.47207000  0.62804000  0.22628000  1.0
  C  C515  1  0.47377000  0.60516000  0.18161000  1.0
  C  C516  1  0.49664000  0.67498000  0.32150000  1.0
  C  C517  1  0.52382000  0.70234000  0.33902000  1.0
  C  C518  1  0.52278000  0.72547000  0.38425000  1.0
  C  C519  1  0.49459000  0.72129000  0.41202000  1.0
  C  C520  1  0.46739000  0.69389000  0.39446000  1.0
  C  C521  1  0.46843000  0.67076000  0.34922000  1.0
  C  C522  1  0.50980000  0.25490000  0.45802000  1.0
  C  C523  1  0.74510000  0.25490000  0.45802000  1.0
  C  C524  1  0.74510000  0.49020000  0.45802000  1.0
  C  C525  1  0.49020000  0.74510000  0.45802000  1.0
  C  C526  1  0.25490000  0.74510000  0.45802000  1.0
  C  C527  1  0.25490000  0.50980000  0.45802000  1.0
  C  C528  1  0.25490000  0.50980000  0.54198000  1.0
  C  C529  1  0.25490000  0.74510000  0.54198000  1.0
  C  C530  1  0.49020000  0.74510000  0.54198000  1.0
  C  C531  1  0.74510000  0.49020000  0.54198000  1.0
  C  C532  1  0.74510000  0.25490000  0.54198000  1.0
  C  C533  1  0.50980000  0.25490000  0.54198000  1.0
  C  C534  1  0.50000000  0.00000000  0.27106000  1.0
  C  C535  1  0.50000000  0.00000000  0.36606000  1.0
  C  C536  1  0.00000000  0.50000000  0.27106000  1.0
  C  C537  1  0.00000000  0.50000000  0.36606000  1.0
  C  C538  1  0.50000000  0.50000000  0.27106000  1.0
  C  C539  1  0.50000000  0.50000000  0.36606000  1.0
  C  C540  1  0.00000000  0.50000000  0.72894000  1.0
  C  C541  1  0.00000000  0.50000000  0.63394000  1.0
  C  C542  1  0.50000000  0.00000000  0.72894000  1.0
  C  C543  1  0.50000000  0.00000000  0.63394000  1.0
  C  C544  1  0.50000000  0.50000000  0.72894000  1.0
  C  C545  1  0.50000000  0.50000000  0.63394000  1.0
  O  O546  1  0.51681000  0.08157000  0.07241000  1.0
  O  O547  1  0.47708000  0.04667000  0.14781000  1.0
  O  O548  1  0.91843000  0.43524000  0.07241000  1.0
  O  O549  1  0.95333000  0.43041000  0.14781000  1.0
  O  O550  1  0.56476000  0.48319000  0.07241000  1.0
  O  O551  1  0.56959000  0.52292000  0.14781000  1.0
  O  O552  1  0.48319000  0.91843000  0.07241000  1.0
  O  O553  1  0.52292000  0.95333000  0.14781000  1.0
  O  O554  1  0.08157000  0.56476000  0.07241000  1.0
  O  O555  1  0.04667000  0.56959000  0.14781000  1.0
  O  O556  1  0.43524000  0.51681000  0.07241000  1.0
  O  O557  1  0.43041000  0.47708000  0.14781000  1.0
  O  O558  1  0.08157000  0.51681000  0.92759000  1.0
  O  O559  1  0.04667000  0.47708000  0.85219000  1.0
  O  O560  1  0.43524000  0.91843000  0.92759000  1.0
  O  O561  1  0.43041000  0.95333000  0.85219000  1.0
  O  O562  1  0.48319000  0.56476000  0.92759000  1.0
  O  O563  1  0.52292000  0.56959000  0.85219000  1.0
  O  O564  1  0.91843000  0.48319000  0.92759000  1.0
  O  O565  1  0.95333000  0.52292000  0.85219000  1.0
  O  O566  1  0.56476000  0.08157000  0.92759000  1.0
  O  O567  1  0.56959000  0.04667000  0.85219000  1.0
  O  O568  1  0.51681000  0.43524000  0.92759000  1.0
  O  O569  1  0.47708000  0.43041000  0.85219000  1.0
  O  O570  1  0.48319000  0.91843000  0.92759000  1.0
  O  O571  1  0.52292000  0.95333000  0.85219000  1.0
  O  O572  1  0.08157000  0.56476000  0.92759000  1.0
  O  O573  1  0.04667000  0.56959000  0.85219000  1.0
  O  O574  1  0.43524000  0.51681000  0.92759000  1.0
  O  O575  1  0.43041000  0.47708000  0.85219000  1.0
  O  O576  1  0.51681000  0.08157000  0.92759000  1.0
  O  O577  1  0.47708000  0.04667000  0.85219000  1.0
  O  O578  1  0.91843000  0.43524000  0.92759000  1.0
  O  O579  1  0.95333000  0.43041000  0.85219000  1.0
  O  O580  1  0.56476000  0.48319000  0.92759000  1.0
  O  O581  1  0.56959000  0.52292000  0.85219000  1.0
  O  O582  1  0.91843000  0.48319000  0.07241000  1.0
  O  O583  1  0.95333000  0.52292000  0.14781000  1.0
  O  O584  1  0.56476000  0.08157000  0.07241000  1.0
  O  O585  1  0.56959000  0.04667000  0.14781000  1.0
  O  O586  1  0.51681000  0.43524000  0.07241000  1.0
  O  O587  1  0.47708000  0.43041000  0.14781000  1.0
  O  O588  1  0.08157000  0.51681000  0.07241000  1.0
  O  O589  1  0.04667000  0.47708000  0.14781000  1.0
  O  O590  1  0.43524000  0.91843000  0.07241000  1.0
  O  O591  1  0.43041000  0.95333000  0.14781000  1.0
  O  O592  1  0.48319000  0.56476000  0.07241000  1.0
  O  O593  1  0.52292000  0.56959000  0.14781000  1.0
  O  O594  1  0.47616000  0.00000000  0.23155000  1.0
  O  O595  1  0.00000000  0.47616000  0.23155000  1.0
  O  O596  1  0.52384000  0.52384000  0.23155000  1.0
  O  O597  1  0.52384000  0.00000000  0.23155000  1.0
  O  O598  1  0.00000000  0.52384000  0.23155000  1.0
  O  O599  1  0.47616000  0.47616000  0.23155000  1.0
  O  O600  1  0.00000000  0.47616000  0.76845000  1.0
  O  O601  1  0.47616000  0.00000000  0.76845000  1.0
  O  O602  1  0.52384000  0.52384000  0.76845000  1.0
  O  O603  1  0.00000000  0.52384000  0.76845000  1.0
  O  O604  1  0.52384000  0.00000000  0.76845000  1.0
  O  O605  1  0.47616000  0.47616000  0.76845000  1.0
  O  O606  1  0.51338000  0.02676000  0.10884000  1.0
  O  O607  1  0.97324000  0.48662000  0.10884000  1.0
  O  O608  1  0.51338000  0.48662000  0.10884000  1.0
  O  O609  1  0.48662000  0.97324000  0.10884000  1.0
  O  O610  1  0.02676000  0.51338000  0.10884000  1.0
  O  O611  1  0.48662000  0.51338000  0.10884000  1.0
  O  O612  1  0.02676000  0.51338000  0.89116000  1.0
  O  O613  1  0.48662000  0.97324000  0.89116000  1.0
  O  O614  1  0.48662000  0.51338000  0.89116000  1.0
  O  O615  1  0.97324000  0.48662000  0.89116000  1.0
  O  O616  1  0.51338000  0.02676000  0.89116000  1.0
  O  O617  1  0.51338000  0.48662000  0.89116000  1.0
  O  O618  1  0.47682000  0.03079000  0.00000000  1.0
  O  O619  1  0.96921000  0.44603000  0.00000000  1.0
  O  O620  1  0.55397000  0.52318000  0.00000000  1.0
  O  O621  1  0.52318000  0.96921000  0.00000000  1.0
  O  O622  1  0.03079000  0.55397000  0.00000000  1.0
  O  O623  1  0.44603000  0.47682000  0.00000000  1.0
  O  O624  1  0.03079000  0.47682000  0.00000000  1.0
  O  O625  1  0.44603000  0.96921000  0.00000000  1.0
  O  O626  1  0.52318000  0.55397000  0.00000000  1.0
  O  O627  1  0.96921000  0.52318000  0.00000000  1.0
  O  O628  1  0.55397000  0.03079000  0.00000000  1.0
  O  O629  1  0.47682000  0.44603000  0.00000000  1.0
  F  F630  1  0.49852000  0.02672000  0.39491000  1.0
  F  F631  1  0.97328000  0.47180000  0.39491000  1.0
  F  F632  1  0.52820000  0.50148000  0.39491000  1.0
  F  F633  1  0.50148000  0.97328000  0.39491000  1.0
  F  F634  1  0.02672000  0.52820000  0.39491000  1.0
  F  F635  1  0.47180000  0.49852000  0.39491000  1.0
  F  F636  1  0.02672000  0.49852000  0.60509000  1.0
  F  F637  1  0.47180000  0.97328000  0.60509000  1.0
  F  F638  1  0.50148000  0.52820000  0.60509000  1.0
  F  F639  1  0.97328000  0.50148000  0.60509000  1.0
  F  F640  1  0.52820000  0.02672000  0.60509000  1.0
  F  F641  1  0.49852000  0.47180000  0.60509000  1.0
  F  F642  1  0.50148000  0.97328000  0.60509000  1.0
  F  F643  1  0.02672000  0.52820000  0.60509000  1.0
  F  F644  1  0.47180000  0.49852000  0.60509000  1.0
  F  F645  1  0.49852000  0.02672000  0.60509000  1.0
  F  F646  1  0.97328000  0.47180000  0.60509000  1.0
  F  F647  1  0.52820000  0.50148000  0.60509000  1.0
  F  F648  1  0.97328000  0.50148000  0.39491000  1.0
  F  F649  1  0.52820000  0.02672000  0.39491000  1.0
  F  F650  1  0.49852000  0.47180000  0.39491000  1.0
  F  F651  1  0.02672000  0.49852000  0.39491000  1.0
  F  F652  1  0.47180000  0.97328000  0.39491000  1.0
  F  F653  1  0.50148000  0.52820000  0.39491000  1.0
  F  F654  1  0.47145000  0.00000000  0.39491000  1.0
  F  F655  1  0.00000000  0.47145000  0.39491000  1.0
  F  F656  1  0.52855000  0.52855000  0.39491000  1.0
  F  F657  1  0.52855000  0.00000000  0.39491000  1.0
  F  F658  1  0.00000000  0.52855000  0.39491000  1.0
  F  F659  1  0.47145000  0.47145000  0.39491000  1.0
  F  F660  1  0.00000000  0.47145000  0.60509000  1.0
  F  F661  1  0.47145000  0.00000000  0.60509000  1.0
  F  F662  1  0.52855000  0.52855000  0.60509000  1.0
  F  F663  1  0.00000000  0.52855000  0.60509000  1.0
  F  F664  1  0.52855000  0.00000000  0.60509000  1.0
  F  F665  1  0.47145000  0.47145000  0.60509000  1.0
