# generated using pymatgen
data_ZnH13C20N2O5
_symmetry_space_group_name_H-M   'P 1'
_cell_length_a   12.54600000
_cell_length_b   15.73400000
_cell_length_c   26.63300000
_cell_angle_alpha   90.00000000
_cell_angle_beta   90.00000000
_cell_angle_gamma   97.86900000
_symmetry_Int_Tables_number   1
_chemical_formula_structural   ZnH13C20N2O5
_chemical_formula_sum   'Zn8 H104 C160 N16 O40'
_cell_volume   5207.81667739
_cell_formula_units_Z   8
loop_
 _symmetry_equiv_pos_site_id
 _symmetry_equiv_pos_as_xyz
  1  'x, y, z'
loop_
 _atom_site_type_symbol
 _atom_site_label
 _atom_site_symmetry_multiplicity
 _atom_site_fract_x
 _atom_site_fract_y
 _atom_site_fract_z
 _atom_site_occupancy
  Zn  Zn0  1  0.30844000  0.81744000  0.74802000  1.0
  Zn  Zn1  1  0.85217000  0.87769000  0.25606000  1.0
  Zn  Zn2  1  0.14783000  0.62231000  0.75606000  1.0
  Zn  Zn3  1  0.69156000  0.68256000  0.24802000  1.0
  Zn  Zn4  1  0.14783000  0.12231000  0.74394000  1.0
  Zn  Zn5  1  0.30844000  0.31744000  0.75198000  1.0
  Zn  Zn6  1  0.69156000  0.18256000  0.25198000  1.0
  Zn  Zn7  1  0.85217000  0.37769000  0.24394000  1.0
  H  H8  1  0.11750000  0.27760000  0.28620000  1.0
  H  H9  1  0.92310000  0.54760000  0.73330000  1.0
  H  H10  1  0.19270000  0.87280000  0.59570000  1.0
  H  H11  1  0.19110000  0.07770000  0.23790000  1.0
  H  H12  1  0.49980000  0.99710000  0.42250000  1.0
  H  H13  1  0.04360000  0.32380000  0.81270000  1.0
  H  H14  1  0.57810000  0.21420000  0.78810000  1.0
  H  H15  1  0.64790000  0.74200000  0.89500000  1.0
  H  H16  1  0.47950000  0.74170000  0.33600000  1.0
  H  H17  1  0.14500000  0.45420000  0.80690000  1.0
  H  H18  1  0.19700000  0.90910000  0.51190000  1.0
  H  H19  1  0.63170000  0.97470000  0.36540000  1.0
  H  H20  1  0.85500000  0.04580000  0.30690000  1.0
  H  H21  1  0.94670000  0.70090000  0.85460000  1.0
  H  H22  1  0.10530000  0.93690000  0.85230000  1.0
  H  H23  1  0.00210000  0.82410000  0.08820000  1.0
  H  H24  1  0.89470000  0.56310000  0.35230000  1.0
  H  H25  1  0.70180000  0.91810000  0.01950000  1.0
  H  H26  1  0.35210000  0.75800000  0.39500000  1.0
  H  H27  1  0.80890000  0.42230000  0.73790000  1.0
  H  H28  1  0.50020000  0.50290000  0.92250000  1.0
  H  H29  1  0.54160000  0.89020000  0.73310000  1.0
  H  H30  1  0.71680000  0.90770000  0.10460000  1.0
  H  H31  1  0.30970000  0.98390000  0.80220000  1.0
  H  H32  1  0.47900000  0.82610000  0.49660000  1.0
  H  H33  1  0.01700000  0.66830000  0.50210000  1.0
  H  H34  1  0.69030000  0.51610000  0.30220000  1.0
  H  H35  1  0.07690000  0.95240000  0.23330000  1.0
  H  H36  1  0.48050000  0.79500000  0.58200000  1.0
  H  H37  1  0.80300000  0.59090000  0.01190000  1.0
  H  H38  1  0.42190000  0.28580000  0.28810000  1.0
  H  H39  1  0.51950000  0.70500000  0.08200000  1.0
  H  H40  1  0.41310000  0.11590000  0.80890000  1.0
  H  H41  1  0.16350000  0.75880000  0.41650000  1.0
  H  H42  1  0.83650000  0.74120000  0.91650000  1.0
  H  H43  1  0.98720000  0.97730000  0.91150000  1.0
  H  H44  1  0.98300000  0.83170000  0.00210000  1.0
  H  H45  1  0.36830000  0.52530000  0.86540000  1.0
  H  H46  1  0.52100000  0.67390000  0.99660000  1.0
  H  H47  1  0.64840000  0.01750000  0.73830000  1.0
  H  H48  1  0.29820000  0.58190000  0.51950000  1.0
  H  H49  1  0.45840000  0.60980000  0.23310000  1.0
  H  H50  1  0.05330000  0.79910000  0.35460000  1.0
  H  H51  1  0.58690000  0.38410000  0.30890000  1.0
  H  H52  1  0.95640000  0.17620000  0.31270000  1.0
  H  H53  1  0.80730000  0.62720000  0.09570000  1.0
  H  H54  1  0.01280000  0.52270000  0.41150000  1.0
  H  H55  1  0.35160000  0.48250000  0.23830000  1.0
  H  H56  1  0.99790000  0.67590000  0.58820000  1.0
  H  H57  1  0.52050000  0.75830000  0.83600000  1.0
  H  H58  1  0.28320000  0.59230000  0.60460000  1.0
  H  H59  1  0.88250000  0.22240000  0.78620000  1.0
  H  H60  1  0.36830000  0.02530000  0.63460000  1.0
  H  H61  1  0.88250000  0.72240000  0.71380000  1.0
  H  H62  1  0.98720000  0.47730000  0.58850000  1.0
  H  H63  1  0.50020000  0.00290000  0.57750000  1.0
  H  H64  1  0.45840000  0.10980000  0.26690000  1.0
  H  H65  1  0.80730000  0.12720000  0.40430000  1.0
  H  H66  1  0.19700000  0.40910000  0.98810000  1.0
  H  H67  1  0.01280000  0.02270000  0.08850000  1.0
  H  H68  1  0.98300000  0.33170000  0.49790000  1.0
  H  H69  1  0.57810000  0.71420000  0.71190000  1.0
  H  H70  1  0.28320000  0.09230000  0.89540000  1.0
  H  H71  1  0.10530000  0.43690000  0.64770000  1.0
  H  H72  1  0.47900000  0.32610000  0.00340000  1.0
  H  H73  1  0.52050000  0.25830000  0.66400000  1.0
  H  H74  1  0.80300000  0.09090000  0.48810000  1.0
  H  H75  1  0.49980000  0.49710000  0.07750000  1.0
  H  H76  1  0.52100000  0.17390000  0.50340000  1.0
  H  H77  1  0.51950000  0.20500000  0.41800000  1.0
  H  H78  1  0.35160000  0.98250000  0.26170000  1.0
  H  H79  1  0.83650000  0.24120000  0.58350000  1.0
  H  H80  1  0.16350000  0.25880000  0.08350000  1.0
  H  H81  1  0.42190000  0.78580000  0.21190000  1.0
  H  H82  1  0.48050000  0.29500000  0.91800000  1.0
  H  H83  1  0.19270000  0.37280000  0.90430000  1.0
  H  H84  1  0.99790000  0.17590000  0.91180000  1.0
  H  H85  1  0.58690000  0.88410000  0.19110000  1.0
  H  H86  1  0.30970000  0.48390000  0.69780000  1.0
  H  H87  1  0.64790000  0.24200000  0.60500000  1.0
  H  H88  1  0.92310000  0.04760000  0.76670000  1.0
  H  H89  1  0.07690000  0.45240000  0.26670000  1.0
  H  H90  1  0.71680000  0.40770000  0.39540000  1.0
  H  H91  1  0.70180000  0.41810000  0.48050000  1.0
  H  H92  1  0.94670000  0.20090000  0.64540000  1.0
  H  H93  1  0.11750000  0.77760000  0.21380000  1.0
  H  H94  1  0.95640000  0.67620000  0.18730000  1.0
  H  H95  1  0.00210000  0.32410000  0.41180000  1.0
  H  H96  1  0.89470000  0.06310000  0.14770000  1.0
  H  H97  1  0.05330000  0.29910000  0.14540000  1.0
  H  H98  1  0.01700000  0.16830000  0.99790000  1.0
  H  H99  1  0.04360000  0.82380000  0.68730000  1.0
  H  H100  1  0.80890000  0.92230000  0.76210000  1.0
  H  H101  1  0.85500000  0.54580000  0.19310000  1.0
  H  H102  1  0.63170000  0.47470000  0.13460000  1.0
  H  H103  1  0.69030000  0.01610000  0.19780000  1.0
  H  H104  1  0.64840000  0.51750000  0.76170000  1.0
  H  H105  1  0.41310000  0.61590000  0.69110000  1.0
  H  H106  1  0.54160000  0.39020000  0.76690000  1.0
  H  H107  1  0.29820000  0.08190000  0.98050000  1.0
  H  H108  1  0.47950000  0.24170000  0.16400000  1.0
  H  H109  1  0.14500000  0.95420000  0.69310000  1.0
  H  H110  1  0.19110000  0.57770000  0.26210000  1.0
  H  H111  1  0.35210000  0.25800000  0.10500000  1.0
  C  C112  1  0.40750000  0.80220000  0.38840000  1.0
  C  C113  1  0.95050000  0.60300000  0.36410000  1.0
  C  C114  1  0.03650000  0.81390000  0.84589000  1.0
  C  C115  1  0.59250000  0.69780000  0.88840000  1.0
  C  C116  1  0.84350000  0.87770000  0.00336000  1.0
  C  C117  1  0.51610000  0.70720000  0.85390000  1.0
  C  C118  1  0.14820000  0.23010000  0.27570000  1.0
  C  C119  1  0.08550000  0.14420000  0.27490000  1.0
  C  C120  1  0.37850000  0.99150000  0.78836000  1.0
  C  C121  1  0.39250000  0.33300000  0.27610000  1.0
  C  C122  1  0.07700000  0.44660000  0.79232000  1.0
  C  C123  1  0.65050000  0.84090000  0.30670000  1.0
  C  C124  1  0.42220000  0.81750000  0.56822000  1.0
  C  C125  1  0.41400000  0.88050000  0.41410000  1.0
  C  C126  1  0.22850000  0.60720000  0.58416000  1.0
  C  C127  1  0.44050000  0.07090000  0.79300000  1.0
  C  C128  1  0.49630000  0.94520000  0.40550000  1.0
  C  C129  1  0.05910000  0.65740000  0.57471000  1.0
  C  C130  1  0.94660000  0.50120000  0.74956000  1.0
  C  C131  1  0.51480000  0.93650000  0.74779000  1.0
  C  C132  1  0.66210000  0.66860000  0.09847000  1.0
  C  C133  1  0.57790000  0.66350000  0.01710000  1.0
  C  C134  1  0.11070000  0.78690000  0.80748000  1.0
  C  C135  1  0.88930000  0.71310000  0.30748000  1.0
  C  C136  1  0.13870000  0.63570000  0.60646000  1.0
  C  C137  1  0.54260000  0.08230000  0.77385000  1.0
  C  C138  1  0.77150000  0.89280000  0.08416000  1.0
  C  C139  1  0.57890000  0.01210000  0.75124000  1.0
  C  C140  1  0.93030000  0.84820000  0.02311000  1.0
  C  C141  1  0.34950000  0.65910000  0.80670000  1.0
  C  C142  1  0.74800000  0.63550000  0.07630000  1.0
  C  C143  1  0.60750000  0.16700000  0.77610000  1.0
  C  C144  1  0.97950000  0.92100000  0.90000000  1.0
  C  C145  1  0.12530000  0.63780000  0.66041000  1.0
  C  C146  1  0.95650000  0.75730000  0.86590000  1.0
  C  C147  1  0.23770000  0.60070000  0.53362000  1.0
  C  C148  1  0.04350000  0.74270000  0.36590000  1.0
  C  C149  1  0.94090000  0.84260000  0.07471000  1.0
  C  C150  1  0.33790000  0.83140000  0.59847000  1.0
  C  C151  1  0.04950000  0.89700000  0.86410000  1.0
  C  C152  1  0.02050000  0.57900000  0.40000000  1.0
  C  C153  1  0.58600000  0.61950000  0.91410000  1.0
  C  C154  1  0.74640000  0.61490000  0.02623000  1.0
  C  C155  1  0.12230000  0.07350000  0.25150000  1.0
  C  C156  1  0.15650000  0.62230000  0.50336000  1.0
  C  C157  1  0.98310000  0.13160000  0.29615000  1.0
  C  C158  1  0.43130000  0.64310000  0.84448000  1.0
  C  C159  1  0.96350000  0.68610000  0.34589000  1.0
  C  C160  1  0.57420000  0.93180000  0.37090000  1.0
  C  C161  1  0.42210000  0.83650000  0.51710000  1.0
  C  C162  1  0.05340000  0.99880000  0.24956000  1.0
  C  C163  1  0.48390000  0.79280000  0.35390000  1.0
  C  C164  1  0.45740000  0.41770000  0.27385000  1.0
  C  C165  1  0.87770000  0.42650000  0.75150000  1.0
  C  C166  1  0.92300000  0.05340000  0.29232000  1.0
  C  C167  1  0.55950000  0.42910000  0.29300000  1.0
  C  C168  1  0.09890000  0.63670000  0.41800000  1.0
  C  C169  1  0.86130000  0.86430000  0.10646000  1.0
  C  C170  1  0.33810000  0.87020000  0.49802000  1.0
  C  C171  1  0.66190000  0.62980000  0.99802000  1.0
  C  C172  1  0.48520000  0.56350000  0.24779000  1.0
  C  C173  1  0.91450000  0.35580000  0.77490000  1.0
  C  C174  1  0.88950000  0.78140000  0.90250000  1.0
  C  C175  1  0.25200000  0.86450000  0.57630000  1.0
  C  C176  1  0.90110000  0.86330000  0.91800000  1.0
  C  C177  1  0.11050000  0.71860000  0.40250000  1.0
  C  C178  1  0.62150000  0.50850000  0.28836000  1.0
  C  C179  1  0.85180000  0.26990000  0.77570000  1.0
  C  C180  1  0.25360000  0.88510000  0.52623000  1.0
  C  C181  1  0.42110000  0.48790000  0.25124000  1.0
  C  C182  1  0.76230000  0.89930000  0.03362000  1.0
  C  C183  1  0.65900000  0.68530000  0.15326000  1.0
  C  C184  1  0.50370000  0.55480000  0.90550000  1.0
  C  C185  1  0.06970000  0.65180000  0.52311000  1.0
  C  C186  1  0.56870000  0.85690000  0.34448000  1.0
  C  C187  1  0.57780000  0.68250000  0.06822000  1.0
  C  C188  1  0.42580000  0.56820000  0.87090000  1.0
  C  C189  1  0.34100000  0.81470000  0.65326000  1.0
  C  C190  1  0.87470000  0.86220000  0.16041000  1.0
  C  C191  1  0.01690000  0.36840000  0.79615000  1.0
  C  C192  1  0.11050000  0.21860000  0.09750000  1.0
  C  C193  1  0.55950000  0.92910000  0.20700000  1.0
  C  C194  1  0.06970000  0.15180000  0.97689000  1.0
  C  C195  1  0.57420000  0.43180000  0.12910000  1.0
  C  C196  1  0.22850000  0.10720000  0.91584000  1.0
  C  C197  1  0.49630000  0.44520000  0.09450000  1.0
  C  C198  1  0.74640000  0.11490000  0.47377000  1.0
  C  C199  1  0.92300000  0.55340000  0.20768000  1.0
  C  C200  1  0.77150000  0.39280000  0.41584000  1.0
  C  C201  1  0.90110000  0.36330000  0.58200000  1.0
  C  C202  1  0.97950000  0.42100000  0.60000000  1.0
  C  C203  1  0.13870000  0.13570000  0.89354000  1.0
  C  C204  1  0.11070000  0.28690000  0.69252000  1.0
  C  C205  1  0.57890000  0.51210000  0.74876000  1.0
  C  C206  1  0.15650000  0.12230000  0.99664000  1.0
  C  C207  1  0.02050000  0.07900000  0.10000000  1.0
  C  C208  1  0.12530000  0.13780000  0.83959000  1.0
  C  C209  1  0.76230000  0.39930000  0.46638000  1.0
  C  C210  1  0.62150000  0.00850000  0.21164000  1.0
  C  C211  1  0.84350000  0.37770000  0.49664000  1.0
  C  C212  1  0.23770000  0.10070000  0.96638000  1.0
  C  C213  1  0.07700000  0.94660000  0.70768000  1.0
  C  C214  1  0.60750000  0.66700000  0.72390000  1.0
  C  C215  1  0.34950000  0.15910000  0.69330000  1.0
  C  C216  1  0.98310000  0.63160000  0.20385000  1.0
  C  C217  1  0.43130000  0.14310000  0.65552000  1.0
  C  C218  1  0.25360000  0.38510000  0.97377000  1.0
  C  C219  1  0.87770000  0.92650000  0.74850000  1.0
  C  C220  1  0.51610000  0.20720000  0.64610000  1.0
  C  C221  1  0.66210000  0.16860000  0.40153000  1.0
  C  C222  1  0.05910000  0.15740000  0.92529000  1.0
  C  C223  1  0.48520000  0.06350000  0.25221000  1.0
  C  C224  1  0.04350000  0.24270000  0.13410000  1.0
  C  C225  1  0.96350000  0.18610000  0.15411000  1.0
  C  C226  1  0.65900000  0.18530000  0.34674000  1.0
  C  C227  1  0.85180000  0.76990000  0.72430000  1.0
  C  C228  1  0.87470000  0.36220000  0.33959000  1.0
  C  C229  1  0.48390000  0.29280000  0.14610000  1.0
  C  C230  1  0.88950000  0.28140000  0.59750000  1.0
  C  C231  1  0.08550000  0.64420000  0.22510000  1.0
  C  C232  1  0.41400000  0.38050000  0.08590000  1.0
  C  C233  1  0.54260000  0.58230000  0.72615000  1.0
  C  C234  1  0.59250000  0.19780000  0.61160000  1.0
  C  C235  1  0.65050000  0.34090000  0.19330000  1.0
  C  C236  1  0.12230000  0.57350000  0.24850000  1.0
  C  C237  1  0.94090000  0.34260000  0.42529000  1.0
  C  C238  1  0.74800000  0.13550000  0.42370000  1.0
  C  C239  1  0.95050000  0.10300000  0.13590000  1.0
  C  C240  1  0.57780000  0.18250000  0.43178000  1.0
  C  C241  1  0.95650000  0.25730000  0.63410000  1.0
  C  C242  1  0.58600000  0.11950000  0.58590000  1.0
  C  C243  1  0.44050000  0.57090000  0.70700000  1.0
  C  C244  1  0.86130000  0.36430000  0.39354000  1.0
  C  C245  1  0.88930000  0.21310000  0.19252000  1.0
  C  C246  1  0.94660000  0.00120000  0.75044000  1.0
  C  C247  1  0.42220000  0.31750000  0.93178000  1.0
  C  C248  1  0.91450000  0.85580000  0.72510000  1.0
  C  C249  1  0.14820000  0.73010000  0.22430000  1.0
  C  C250  1  0.01690000  0.86840000  0.70385000  1.0
  C  C251  1  0.45740000  0.91770000  0.22615000  1.0
  C  C252  1  0.03650000  0.31390000  0.65411000  1.0
  C  C253  1  0.33810000  0.37020000  0.00198000  1.0
  C  C254  1  0.93030000  0.34820000  0.47689000  1.0
  C  C255  1  0.42210000  0.33650000  0.98290000  1.0
  C  C256  1  0.56870000  0.35690000  0.15552000  1.0
  C  C257  1  0.50370000  0.05480000  0.59450000  1.0
  C  C258  1  0.40750000  0.30220000  0.11160000  1.0
  C  C259  1  0.37850000  0.49150000  0.71164000  1.0
  C  C260  1  0.42110000  0.98790000  0.24876000  1.0
  C  C261  1  0.04950000  0.39700000  0.63590000  1.0
  C  C262  1  0.66190000  0.12980000  0.50198000  1.0
  C  C263  1  0.09890000  0.13670000  0.08200000  1.0
  C  C264  1  0.51480000  0.43650000  0.75221000  1.0
  C  C265  1  0.39250000  0.83300000  0.22390000  1.0
  C  C266  1  0.05340000  0.49880000  0.25044000  1.0
  C  C267  1  0.57790000  0.16350000  0.48290000  1.0
  C  C268  1  0.25200000  0.36450000  0.92370000  1.0
  C  C269  1  0.33790000  0.33140000  0.90153000  1.0
  C  C270  1  0.42580000  0.06820000  0.62910000  1.0
  C  C271  1  0.34100000  0.31470000  0.84674000  1.0
  N  N272  1  0.95520000  0.98720000  0.26906000  1.0
  N  N273  1  0.29450000  0.32500000  0.26130000  1.0
  N  N274  1  0.41280000  0.92580000  0.76504000  1.0
  N  N275  1  0.58720000  0.57420000  0.26504000  1.0
  N  N276  1  0.70550000  0.17500000  0.76130000  1.0
  N  N277  1  0.04480000  0.51280000  0.76906000  1.0
  N  N278  1  0.24560000  0.23730000  0.26160000  1.0
  N  N279  1  0.75440000  0.26270000  0.76160000  1.0
  N  N280  1  0.58720000  0.07420000  0.23496000  1.0
  N  N281  1  0.75440000  0.76270000  0.73840000  1.0
  N  N282  1  0.41280000  0.42580000  0.73496000  1.0
  N  N283  1  0.70550000  0.67500000  0.73870000  1.0
  N  N284  1  0.24560000  0.73730000  0.23840000  1.0
  N  N285  1  0.95520000  0.48720000  0.23094000  1.0
  N  N286  1  0.04480000  0.01280000  0.73094000  1.0
  N  N287  1  0.29450000  0.82500000  0.23870000  1.0
  O  O288  1  0.95810000  0.84310000  0.18011000  1.0
  O  O289  1  0.91430000  0.78660000  0.28996000  1.0
  O  O290  1  0.58050000  0.71010000  0.17282000  1.0
  O  O291  1  0.41950000  0.78990000  0.67282000  1.0
  O  O292  1  0.25910000  0.83010000  0.67941000  1.0
  O  O293  1  0.73310000  0.89470000  0.30245000  1.0
  O  O294  1  0.08570000  0.71340000  0.78996000  1.0
  O  O295  1  0.80900000  0.66140000  0.29472000  1.0
  O  O296  1  0.79680000  0.88130000  0.18825000  1.0
  O  O297  1  0.26690000  0.60530000  0.80245000  1.0
  O  O298  1  0.17370000  0.61160000  0.45191000  1.0
  O  O299  1  0.82630000  0.88840000  0.95191000  1.0
  O  O300  1  0.66910000  0.60530000  0.94730000  1.0
  O  O301  1  0.36890000  0.72560000  0.78169000  1.0
  O  O302  1  0.20320000  0.61870000  0.68825000  1.0
  O  O303  1  0.63110000  0.77440000  0.28169000  1.0
  O  O304  1  0.33090000  0.89470000  0.44730000  1.0
  O  O305  1  0.74090000  0.66990000  0.17941000  1.0
  O  O306  1  0.04190000  0.65690000  0.68011000  1.0
  O  O307  1  0.19100000  0.83860000  0.79472000  1.0
  O  O308  1  0.25910000  0.33010000  0.82059000  1.0
  O  O309  1  0.66910000  0.10530000  0.55270000  1.0
  O  O310  1  0.79680000  0.38130000  0.31175000  1.0
  O  O311  1  0.26690000  0.10530000  0.69755000  1.0
  O  O312  1  0.91430000  0.28660000  0.21004000  1.0
  O  O313  1  0.19100000  0.33860000  0.70528000  1.0
  O  O314  1  0.63110000  0.27440000  0.21831000  1.0
  O  O315  1  0.82630000  0.38840000  0.54809000  1.0
  O  O316  1  0.36890000  0.22560000  0.71831000  1.0
  O  O317  1  0.95810000  0.34310000  0.31989000  1.0
  O  O318  1  0.33090000  0.39470000  0.05270000  1.0
  O  O319  1  0.80900000  0.16140000  0.20528000  1.0
  O  O320  1  0.41950000  0.28990000  0.82718000  1.0
  O  O321  1  0.58050000  0.21010000  0.32718000  1.0
  O  O322  1  0.04190000  0.15690000  0.81989000  1.0
  O  O323  1  0.74090000  0.16990000  0.32059000  1.0
  O  O324  1  0.08570000  0.21340000  0.71004000  1.0
  O  O325  1  0.20320000  0.11870000  0.81175000  1.0
  O  O326  1  0.73310000  0.39470000  0.19755000  1.0
  O  O327  1  0.17370000  0.11160000  0.04809000  1.0
