# generated using pymatgen
data_AlH4C8O4F
_symmetry_space_group_name_H-M   'P 1'
_cell_length_a   13.13950000
_cell_length_b   16.41440000
_cell_length_c   13.31410000
_cell_angle_alpha   89.99840000
_cell_angle_beta   90.00350000
_cell_angle_gamma   90.60470000
_symmetry_Int_Tables_number   1
_chemical_formula_structural   AlH4C8O4F
_chemical_formula_sum   'Al8 H32 C64 O32 F8'
_cell_volume   2871.38533146
_cell_formula_units_Z   8
loop_
 _symmetry_equiv_pos_site_id
 _symmetry_equiv_pos_as_xyz
  1  'x, y, z'
loop_
 _atom_site_type_symbol
 _atom_site_label
 _atom_site_symmetry_multiplicity
 _atom_site_fract_x
 _atom_site_fract_y
 _atom_site_fract_z
 _atom_site_occupancy
  Al  Al0  1  0.12501000  0.24993000  0.74828000  1.0
  Al  Al1  1  0.37496000  0.74993000  0.24825000  1.0
  Al  Al2  1  0.37501000  0.24991000  0.74828000  1.0
  Al  Al3  1  0.12496000  0.74991000  0.24824000  1.0
  Al  Al4  1  0.62502000  0.24995000  0.74825000  1.0
  Al  Al5  1  0.87498000  0.74995000  0.24824000  1.0
  Al  Al6  1  0.87503000  0.24993000  0.74829000  1.0
  Al  Al7  1  0.62498000  0.74993000  0.24826000  1.0
  H  H8  1  0.41196000  0.45984000  0.58096000  1.0
  H  H9  1  0.40778000  0.58121000  0.46586000  1.0
  H  H10  1  0.08819000  0.54026000  0.41589000  1.0
  H  H11  1  0.09237000  0.41891000  0.53101000  1.0
  H  H12  1  0.40776000  0.08115000  0.53073000  1.0
  H  H13  1  0.08814000  0.04028000  0.58057000  1.0
  H  H14  1  0.15774000  0.08054000  0.96500000  1.0
  H  H15  1  0.34231000  0.91818000  0.02982000  1.0
  H  H16  1  0.16186000  0.95913000  0.08003000  1.0
  H  H17  1  0.33821000  0.03958000  0.91477000  1.0
  H  H18  1  0.34225000  0.41822000  0.96645000  1.0
  H  H19  1  0.16187000  0.45917000  0.91663000  1.0
  H  H20  1  0.09229000  0.91899000  0.46537000  1.0
  H  H21  1  0.41190000  0.95985000  0.41553000  1.0
  H  H22  1  0.15764000  0.58051000  0.03175000  1.0
  H  H23  1  0.33804000  0.53955000  0.08159000  1.0
  H  H24  1  0.91203000  0.45993000  0.58104000  1.0
  H  H25  1  0.90785000  0.58130000  0.46596000  1.0
  H  H26  1  0.58826000  0.54038000  0.41601000  1.0
  H  H27  1  0.59243000  0.41901000  0.53111000  1.0
  H  H28  1  0.90785000  0.08124000  0.53064000  1.0
  H  H29  1  0.58822000  0.04040000  0.58045000  1.0
  H  H30  1  0.65784000  0.08036000  0.96474000  1.0
  H  H31  1  0.84237000  0.91803000  0.02960000  1.0
  H  H32  1  0.66193000  0.95896000  0.07978000  1.0
  H  H33  1  0.83825000  0.03943000  0.91457000  1.0
  H  H34  1  0.84231000  0.41812000  0.96660000  1.0
  H  H35  1  0.66191000  0.45903000  0.91682000  1.0
  H  H36  1  0.59236000  0.91910000  0.46525000  1.0
  H  H37  1  0.91198000  0.95995000  0.41543000  1.0
  H  H38  1  0.65771000  0.58037000  0.03196000  1.0
  H  H39  1  0.83809000  0.53946000  0.08174000  1.0
  C  C40  1  0.40850000  0.02144000  0.95148000  1.0
  C  C41  1  0.99778000  0.06680000  0.93342000  1.0
  C  C42  1  0.49570000  0.13873000  0.86498000  1.0
  C  C43  1  0.08928000  0.54434000  0.01705000  1.0
  C  C44  1  0.15848000  0.52218000  0.45263000  1.0
  C  C45  1  0.24777000  0.56752000  0.43446000  1.0
  C  C46  1  0.24566000  0.63928000  0.36575000  1.0
  C  C47  1  0.33935000  0.04504000  0.51597000  1.0
  C  C48  1  0.09157000  0.47723000  0.95336000  1.0
  C  C49  1  0.50227000  0.43191000  0.93511000  1.0
  C  C50  1  0.00433000  0.36040000  0.86602000  1.0
  C  C51  1  0.41072000  0.95430000  0.01514000  1.0
  C  C52  1  0.34160000  0.97796000  0.45223000  1.0
  C  C53  1  0.25228000  0.93268000  0.43396000  1.0
  C  C54  1  0.25433000  0.86096000  0.36517000  1.0
  C  C55  1  0.16076000  0.45506000  0.51631000  1.0
  C  C56  1  0.09160000  0.97720000  0.04322000  1.0
  C  C57  1  0.50230000  0.93185000  0.06133000  1.0
  C  C58  1  0.00431000  0.86033000  0.13041000  1.0
  C  C59  1  0.41065000  0.45434000  0.98123000  1.0
  C  C60  1  0.34166000  0.47794000  0.54425000  1.0
  C  C61  1  0.25235000  0.43263000  0.56248000  1.0
  C  C62  1  0.25439000  0.36092000  0.63127000  1.0
  C  C63  1  0.16069000  0.95511000  0.48011000  1.0
  C  C64  1  0.40837000  0.52144000  0.04494000  1.0
  C  C65  1  0.99765000  0.56679000  0.06312000  1.0
  C  C66  1  0.49557000  0.63870000  0.13160000  1.0
  C  C67  1  0.08936000  0.04434000  0.97958000  1.0
  C  C68  1  0.15844000  0.02220000  0.54384000  1.0
  C  C69  1  0.24774000  0.06750000  0.56208000  1.0
  C  C70  1  0.24567000  0.13923000  0.63083000  1.0
  C  C71  1  0.33938000  0.54507000  0.48058000  1.0
  C  C72  1  0.90852000  0.02136000  0.95137000  1.0
  C  C73  1  0.49780000  0.06679000  0.93340000  1.0
  C  C74  1  0.99567000  0.13875000  0.86501000  1.0
  C  C75  1  0.58931000  0.54425000  0.01718000  1.0
  C  C76  1  0.65855000  0.52228000  0.45274000  1.0
  C  C77  1  0.74784000  0.56762000  0.43457000  1.0
  C  C78  1  0.74571000  0.63936000  0.36583000  1.0
  C  C79  1  0.83943000  0.04513000  0.51587000  1.0
  C  C80  1  0.59159000  0.47715000  0.95348000  1.0
  C  C81  1  0.00228000  0.43193000  0.93509000  1.0
  C  C82  1  0.50432000  0.36039000  0.86602000  1.0
  C  C83  1  0.91076000  0.95422000  0.01502000  1.0
  C  C84  1  0.84168000  0.97805000  0.45213000  1.0
  C  C85  1  0.75236000  0.93277000  0.43386000  1.0
  C  C86  1  0.75439000  0.86104000  0.36509000  1.0
  C  C87  1  0.66082000  0.45516000  0.51641000  1.0
  C  C88  1  0.59164000  0.97710000  0.04308000  1.0
  C  C89  1  0.00230000  0.93186000  0.06134000  1.0
  C  C90  1  0.50429000  0.86034000  0.13043000  1.0
  C  C91  1  0.91069000  0.45428000  0.98131000  1.0
  C  C92  1  0.84172000  0.47803000  0.54435000  1.0
  C  C93  1  0.75242000  0.43272000  0.56256000  1.0
  C  C94  1  0.75444000  0.36099000  0.63134000  1.0
  C  C95  1  0.66076000  0.95522000  0.47999000  1.0
  C  C96  1  0.90839000  0.52139000  0.04501000  1.0
  C  C97  1  0.49766000  0.56677000  0.06315000  1.0
  C  C98  1  0.99555000  0.63871000  0.13158000  1.0
  C  C99  1  0.58942000  0.04424000  0.97942000  1.0
  C  C100  1  0.65852000  0.02230000  0.54373000  1.0
  C  C101  1  0.74782000  0.06760000  0.56197000  1.0
  C  C102  1  0.74573000  0.13931000  0.63075000  1.0
  C  C103  1  0.83945000  0.54516000  0.48067000  1.0
  O  O104  1  0.08023000  0.17480000  0.84735000  1.0
  O  O105  1  0.40947000  0.65928000  0.16719000  1.0
  O  O106  1  0.33021000  0.67528000  0.34789000  1.0
  O  O107  1  0.15958000  0.15973000  0.66651000  1.0
  O  O108  1  0.41972000  0.32454000  0.84793000  1.0
  O  O109  1  0.09036000  0.83999000  0.16632000  1.0
  O  O110  1  0.16974000  0.82502000  0.34733000  1.0
  O  O111  1  0.34047000  0.34041000  0.66699000  1.0
  O  O112  1  0.41968000  0.82450000  0.14851000  1.0
  O  O113  1  0.09040000  0.34005000  0.83016000  1.0
  O  O114  1  0.16978000  0.32502000  0.64916000  1.0
  O  O115  1  0.34041000  0.84049000  0.32942000  1.0
  O  O116  1  0.08012000  0.67477000  0.14923000  1.0
  O  O117  1  0.40959000  0.15933000  0.82942000  1.0
  O  O118  1  0.33025000  0.17518000  0.64874000  1.0
  O  O119  1  0.15957000  0.65972000  0.33002000  1.0
  O  O120  1  0.58027000  0.17477000  0.84728000  1.0
  O  O121  1  0.90947000  0.65926000  0.16722000  1.0
  O  O122  1  0.83026000  0.67536000  0.34795000  1.0
  O  O123  1  0.65964000  0.15979000  0.66643000  1.0
  O  O124  1  0.91974000  0.32452000  0.84798000  1.0
  O  O125  1  0.59036000  0.83996000  0.16628000  1.0
  O  O126  1  0.66980000  0.82509000  0.34728000  1.0
  O  O127  1  0.84051000  0.34047000  0.66706000  1.0
  O  O128  1  0.91971000  0.82445000  0.14844000  1.0
  O  O129  1  0.59039000  0.34003000  0.83018000  1.0
  O  O130  1  0.66983000  0.32508000  0.64919000  1.0
  O  O131  1  0.84046000  0.84056000  0.32934000  1.0
  O  O132  1  0.58014000  0.67472000  0.14929000  1.0
  O  O133  1  0.90957000  0.15932000  0.82940000  1.0
  O  O134  1  0.83031000  0.17525000  0.64869000  1.0
  O  O135  1  0.65961000  0.65980000  0.33011000  1.0
  F  F136  1  0.00002000  0.25004000  0.68787000  1.0
  F  F137  1  0.24996000  0.74986000  0.18784000  1.0
  F  F138  1  0.49998000  0.75006000  0.30867000  1.0
  F  F139  1  0.25001000  0.24987000  0.80868000  1.0
  F  F140  1  0.50002000  0.25004000  0.68786000  1.0
  F  F141  1  0.74997000  0.74985000  0.18785000  1.0
  F  F142  1  0.99998000  0.75006000  0.30866000  1.0
  F  F143  1  0.75002000  0.24988000  0.80867000  1.0
