# generated using pymatgen
data_GdH4C8NO7
_symmetry_space_group_name_H-M   'P 1'
_cell_length_a   10.53820000
_cell_length_b   17.66800000
_cell_length_c   20.00500000
_cell_angle_alpha   90.00000000
_cell_angle_beta   90.00000000
_cell_angle_gamma   91.20500000
_symmetry_Int_Tables_number   1
_chemical_formula_structural   GdH4C8NO7
_chemical_formula_sum   'Gd8 H32 C64 N8 O56'
_cell_volume   3723.88558494
_cell_formula_units_Z   8
loop_
 _symmetry_equiv_pos_site_id
 _symmetry_equiv_pos_as_xyz
  1  'x, y, z'
loop_
 _atom_site_type_symbol
 _atom_site_label
 _atom_site_symmetry_multiplicity
 _atom_site_fract_x
 _atom_site_fract_y
 _atom_site_fract_z
 _atom_site_occupancy
  Gd  Gd0  1  0.17790000  0.50013000  0.26557000  1.0
  Gd  Gd1  1  0.25383000  0.99195000  0.51810000  1.0
  Gd  Gd2  1  0.32210000  0.49987000  0.76557000  1.0
  Gd  Gd3  1  0.24617000  0.00805000  0.01810000  1.0
  Gd  Gd4  1  0.82210000  0.49987000  0.73443000  1.0
  Gd  Gd5  1  0.74617000  0.00805000  0.48190000  1.0
  Gd  Gd6  1  0.67790000  0.50013000  0.23443000  1.0
  Gd  Gd7  1  0.75383000  0.99195000  0.98190000  1.0
  H  H8  1  0.13250000  0.68720000  0.32790000  1.0
  H  H9  1  0.16730000  0.79830000  0.38930000  1.0
  H  H10  1  0.78900000  0.82760000  0.40190000  1.0
  H  H11  1  0.75300000  0.71490000  0.34280000  1.0
  H  H12  1  0.63970000  0.30150000  0.32610000  1.0
  H  H13  1  0.27160000  0.32190000  0.37940000  1.0
  H  H14  1  0.28620000  0.21480000  0.44670000  1.0
  H  H15  1  0.65650000  0.19600000  0.39590000  1.0
  H  H16  1  0.36750000  0.31280000  0.82790000  1.0
  H  H17  1  0.33270000  0.20170000  0.88930000  1.0
  H  H18  1  0.71100000  0.17240000  0.90190000  1.0
  H  H19  1  0.74700000  0.28510000  0.84280000  1.0
  H  H20  1  0.86030000  0.69850000  0.82610000  1.0
  H  H21  1  0.22840000  0.67810000  0.87940000  1.0
  H  H22  1  0.21380000  0.78520000  0.94670000  1.0
  H  H23  1  0.84350000  0.80400000  0.89590000  1.0
  H  H24  1  0.86750000  0.31280000  0.67210000  1.0
  H  H25  1  0.83270000  0.20170000  0.61070000  1.0
  H  H26  1  0.21100000  0.17240000  0.59810000  1.0
  H  H27  1  0.24700000  0.28510000  0.65720000  1.0
  H  H28  1  0.36030000  0.69850000  0.67390000  1.0
  H  H29  1  0.72840000  0.67810000  0.62060000  1.0
  H  H30  1  0.71380000  0.78520000  0.55330000  1.0
  H  H31  1  0.34350000  0.80400000  0.60410000  1.0
  H  H32  1  0.63250000  0.68720000  0.17210000  1.0
  H  H33  1  0.66730000  0.79830000  0.11070000  1.0
  H  H34  1  0.28900000  0.82760000  0.09810000  1.0
  H  H35  1  0.25300000  0.71490000  0.15720000  1.0
  H  H36  1  0.13970000  0.30150000  0.17390000  1.0
  H  H37  1  0.77160000  0.32190000  0.12060000  1.0
  H  H38  1  0.78620000  0.21480000  0.05330000  1.0
  H  H39  1  0.15650000  0.19600000  0.10410000  1.0
  C  C40  1  0.91620000  0.61540000  0.29530000  1.0
  C  C41  1  0.93930000  0.68980000  0.33050000  1.0
  C  C42  1  0.06240000  0.71510000  0.34370000  1.0
  C  C43  1  0.08310000  0.78120000  0.38010000  1.0
  C  C44  1  0.98060000  0.82260000  0.40320000  1.0
  C  C45  1  0.85900000  0.79840000  0.38790000  1.0
  C  C46  1  0.83730000  0.73170000  0.35220000  1.0
  C  C47  1  0.00580000  0.89310000  0.44400000  1.0
  C  C48  1  0.44050000  0.38610000  0.29640000  1.0
  C  C49  1  0.56760000  0.28360000  0.35030000  1.0
  C  C50  1  0.34910000  0.29550000  0.38150000  1.0
  C  C51  1  0.47930000  0.12340000  0.46850000  1.0
  C  C52  1  0.35830000  0.23220000  0.42210000  1.0
  C  C53  1  0.45280000  0.32070000  0.34390000  1.0
  C  C54  1  0.57780000  0.22080000  0.39170000  1.0
  C  C55  1  0.47100000  0.19430000  0.42730000  1.0
  C  C56  1  0.58380000  0.38460000  0.79530000  1.0
  C  C57  1  0.56070000  0.31020000  0.83050000  1.0
  C  C58  1  0.43760000  0.28490000  0.84370000  1.0
  C  C59  1  0.41690000  0.21880000  0.88010000  1.0
  C  C60  1  0.51940000  0.17740000  0.90320000  1.0
  C  C61  1  0.64100000  0.20160000  0.88790000  1.0
  C  C62  1  0.66270000  0.26830000  0.85220000  1.0
  C  C63  1  0.49420000  0.10690000  0.94400000  1.0
  C  C64  1  0.05950000  0.61390000  0.79640000  1.0
  C  C65  1  0.93240000  0.71640000  0.85030000  1.0
  C  C66  1  0.15090000  0.70450000  0.88150000  1.0
  C  C67  1  0.02070000  0.87660000  0.96850000  1.0
  C  C68  1  0.14170000  0.76780000  0.92210000  1.0
  C  C69  1  0.04720000  0.67930000  0.84390000  1.0
  C  C70  1  0.92220000  0.77920000  0.89170000  1.0
  C  C71  1  0.02900000  0.80570000  0.92730000  1.0
  C  C72  1  0.08380000  0.38460000  0.70470000  1.0
  C  C73  1  0.06070000  0.31020000  0.66950000  1.0
  C  C74  1  0.93760000  0.28490000  0.65630000  1.0
  C  C75  1  0.91690000  0.21880000  0.61990000  1.0
  C  C76  1  0.01940000  0.17740000  0.59680000  1.0
  C  C77  1  0.14100000  0.20160000  0.61210000  1.0
  C  C78  1  0.16270000  0.26830000  0.64780000  1.0
  C  C79  1  0.99420000  0.10690000  0.55600000  1.0
  C  C80  1  0.55950000  0.61390000  0.70360000  1.0
  C  C81  1  0.43240000  0.71640000  0.64970000  1.0
  C  C82  1  0.65090000  0.70450000  0.61850000  1.0
  C  C83  1  0.52070000  0.87660000  0.53150000  1.0
  C  C84  1  0.64170000  0.76780000  0.57790000  1.0
  C  C85  1  0.54720000  0.67930000  0.65610000  1.0
  C  C86  1  0.42220000  0.77920000  0.60830000  1.0
  C  C87  1  0.52900000  0.80570000  0.57270000  1.0
  C  C88  1  0.41620000  0.61540000  0.20470000  1.0
  C  C89  1  0.43930000  0.68980000  0.16950000  1.0
  C  C90  1  0.56240000  0.71510000  0.15630000  1.0
  C  C91  1  0.58310000  0.78120000  0.11990000  1.0
  C  C92  1  0.48060000  0.82260000  0.09680000  1.0
  C  C93  1  0.35900000  0.79840000  0.11210000  1.0
  C  C94  1  0.33730000  0.73170000  0.14780000  1.0
  C  C95  1  0.50580000  0.89310000  0.05600000  1.0
  C  C96  1  0.94050000  0.38610000  0.20360000  1.0
  C  C97  1  0.06760000  0.28360000  0.14970000  1.0
  C  C98  1  0.84910000  0.29550000  0.11850000  1.0
  C  C99  1  0.97930000  0.12340000  0.03150000  1.0
  C  C100  1  0.85830000  0.23220000  0.07790000  1.0
  C  C101  1  0.95280000  0.32070000  0.15610000  1.0
  C  C102  1  0.07780000  0.22080000  0.10830000  1.0
  C  C103  1  0.97100000  0.19430000  0.07270000  1.0
  N  N104  1  0.18740000  0.47540000  0.12080000  1.0
  N  N105  1  0.26210000  0.02490000  0.37490000  1.0
  N  N106  1  0.31260000  0.52460000  0.62080000  1.0
  N  N107  1  0.23790000  0.97510000  0.87490000  1.0
  N  N108  1  0.81260000  0.52460000  0.87920000  1.0
  N  N109  1  0.73790000  0.97510000  0.62510000  1.0
  N  N110  1  0.68740000  0.47540000  0.37920000  1.0
  N  N111  1  0.76210000  0.02490000  0.12510000  1.0
  O  O112  1  0.01060000  0.58001000  0.27534000  1.0
  O  O113  1  0.10290000  0.51570000  0.14558000  1.0
  O  O114  1  0.25870000  0.44113000  0.16161000  1.0
  O  O115  1  0.53360000  0.40036000  0.25781000  1.0
  O  O116  1  0.33930000  0.42102000  0.29715000  1.0
  O  O117  1  0.80330000  0.59381000  0.28863000  1.0
  O  O118  1  0.11530000  0.90316000  0.46699000  1.0
  O  O119  1  0.17850000  0.05180000  0.41181000  1.0
  O  O120  1  0.33700000  0.97800000  0.40152000  1.0
  O  O121  1  0.38030000  0.10002000  0.49661000  1.0
  O  O122  1  0.58410000  0.09138000  0.47117000  1.0
  O  O123  1  0.91580000  0.93644000  0.45271000  1.0
  O  O124  1  0.20310000  0.46990000  0.06010000  1.0
  O  O125  1  0.27050000  0.04170000  0.31630000  1.0
  O  O126  1  0.48940000  0.41999000  0.77534000  1.0
  O  O127  1  0.39710000  0.48430000  0.64558000  1.0
  O  O128  1  0.24130000  0.55887000  0.66161000  1.0
  O  O129  1  0.96640000  0.59964000  0.75781000  1.0
  O  O130  1  0.16070000  0.57898000  0.79715000  1.0
  O  O131  1  0.69670000  0.40619000  0.78863000  1.0
  O  O132  1  0.38470000  0.09684000  0.96699000  1.0
  O  O133  1  0.32150000  0.94820000  0.91181000  1.0
  O  O134  1  0.16300000  0.02200000  0.90152000  1.0
  O  O135  1  0.11970000  0.89998000  0.99661000  1.0
  O  O136  1  0.91590000  0.90862000  0.97117000  1.0
  O  O137  1  0.58420000  0.06356000  0.95271000  1.0
  O  O138  1  0.29690000  0.53010000  0.56010000  1.0
  O  O139  1  0.22950000  0.95830000  0.81630000  1.0
  O  O140  1  0.98940000  0.41999000  0.72466000  1.0
  O  O141  1  0.89710000  0.48430000  0.85442000  1.0
  O  O142  1  0.74130000  0.55887000  0.83839000  1.0
  O  O143  1  0.46640000  0.59964000  0.74219000  1.0
  O  O144  1  0.66070000  0.57898000  0.70285000  1.0
  O  O145  1  0.19670000  0.40619000  0.71137000  1.0
  O  O146  1  0.88470000  0.09684000  0.53301000  1.0
  O  O147  1  0.82150000  0.94820000  0.58819000  1.0
  O  O148  1  0.66300000  0.02200000  0.59848000  1.0
  O  O149  1  0.61970000  0.89998000  0.50339000  1.0
  O  O150  1  0.41590000  0.90862000  0.52883000  1.0
  O  O151  1  0.08420000  0.06356000  0.54729000  1.0
  O  O152  1  0.79690000  0.53010000  0.93990000  1.0
  O  O153  1  0.72950000  0.95830000  0.68370000  1.0
  O  O154  1  0.51060000  0.58001000  0.22466000  1.0
  O  O155  1  0.60290000  0.51570000  0.35442000  1.0
  O  O156  1  0.75870000  0.44113000  0.33839000  1.0
  O  O157  1  0.03360000  0.40036000  0.24219000  1.0
  O  O158  1  0.83930000  0.42102000  0.20285000  1.0
  O  O159  1  0.30330000  0.59381000  0.21137000  1.0
  O  O160  1  0.61530000  0.90316000  0.03301000  1.0
  O  O161  1  0.67850000  0.05180000  0.08819000  1.0
  O  O162  1  0.83700000  0.97800000  0.09848000  1.0
  O  O163  1  0.88030000  0.10002000  0.00339000  1.0
  O  O164  1  0.08410000  0.09138000  0.02883000  1.0
  O  O165  1  0.41580000  0.93644000  0.04729000  1.0
  O  O166  1  0.70310000  0.46990000  0.43990000  1.0
  O  O167  1  0.77050000  0.04170000  0.18370000  1.0
