# generated using pymatgen
data_Cd5Mo12P8H16C20(N2O25)2
_symmetry_space_group_name_H-M   'P 1'
_cell_length_a   12.80600000
_cell_length_b   13.80900000
_cell_length_c   14.50800000
_cell_angle_alpha   113.57000000
_cell_angle_beta   96.71000000
_cell_angle_gamma   106.21000000
_symmetry_Int_Tables_number   1
_chemical_formula_structural   Cd5Mo12P8H16C20(N2O25)2
_chemical_formula_sum   'Cd5 Mo12 P8 H16 C20 N4 O50'
_cell_volume   2180.63587282
_cell_formula_units_Z   1
loop_
 _symmetry_equiv_pos_site_id
 _symmetry_equiv_pos_as_xyz
  1  'x, y, z'
loop_
 _atom_site_type_symbol
 _atom_site_label
 _atom_site_symmetry_multiplicity
 _atom_site_fract_x
 _atom_site_fract_y
 _atom_site_fract_z
 _atom_site_occupancy
  Cd  Cd0  1  0.91520000  0.75344000  0.18480000  1.0
  Cd  Cd1  1  0.51195000  0.63929000  0.08284000  1.0
  Cd  Cd2  1  0.08480000  0.24656000  0.81520000  1.0
  Cd  Cd3  1  0.48805000  0.36071000  0.91716000  1.0
  Cd  Cd4  1  0.00000000  0.50000000  0.50000000  1.0
  Mo  Mo5  1  0.05688000  0.42496000  0.22506000  1.0
  Mo  Mo6  1  0.84710000  0.40609000  0.21016000  1.0
  Mo  Mo7  1  0.73082000  0.34951000  0.55473000  1.0
  Mo  Mo8  1  0.78567000  0.20238000  0.40624000  1.0
  Mo  Mo9  1  0.07093000  0.23276000  0.42877000  1.0
  Mo  Mo10  1  0.22675000  0.39764000  0.59198000  1.0
  Mo  Mo11  1  0.94312000  0.57504000  0.77494000  1.0
  Mo  Mo12  1  0.15290000  0.59391000  0.78984000  1.0
  Mo  Mo13  1  0.26918000  0.65049000  0.44527000  1.0
  Mo  Mo14  1  0.21433000  0.79762000  0.59376000  1.0
  Mo  Mo15  1  0.92907000  0.76724000  0.57123000  1.0
  Mo  Mo16  1  0.77325000  0.60236000  0.40802000  1.0
  P  P17  1  0.02902000  0.68339000  0.35205000  1.0
  P  P18  1  0.87117000  0.98745000  0.36648000  1.0
  P  P19  1  0.28039000  0.59716000  0.20117000  1.0
  P  P20  1  0.68275000  0.53818000  0.15644000  1.0
  P  P21  1  0.97098000  0.31661000  0.64795000  1.0
  P  P22  1  0.12883000  0.01255000  0.63352000  1.0
  P  P23  1  0.71961000  0.40284000  0.79883000  1.0
  P  P24  1  0.31725000  0.46182000  0.84356000  1.0
  H  H25  1  0.31390000  0.35050000  0.06310000  1.0
  H  H26  1  0.20370000  0.23490000  0.11970000  1.0
  H  H27  1  0.26970000  0.97570000  0.91490000  1.0
  H  H28  1  0.37970000  0.10010000  0.86700000  1.0
  H  H29  1  0.11380000  0.77620000  0.07070000  1.0
  H  H30  1  0.22890000  0.89520000  0.02050000  1.0
  H  H31  1  0.06350000  0.10770000  0.12410000  1.0
  H  H32  1  0.95850000  0.98610000  0.17940000  1.0
  H  H33  1  0.68610000  0.64950000  0.93690000  1.0
  H  H34  1  0.79630000  0.76510000  0.88030000  1.0
  H  H35  1  0.73030000  0.02430000  0.08510000  1.0
  H  H36  1  0.62030000  0.89990000  0.13300000  1.0
  H  H37  1  0.88620000  0.22380000  0.92930000  1.0
  H  H38  1  0.77110000  0.10480000  0.97950000  1.0
  H  H39  1  0.93650000  0.89230000  0.87590000  1.0
  H  H40  1  0.04150000  0.01390000  0.82060000  1.0
  C  C41  1  0.30680000  0.27480000  0.03490000  1.0
  C  C42  1  0.24020000  0.20580000  0.06920000  1.0
  C  C43  1  0.22830000  0.09170000  0.02720000  1.0
  C  C44  1  0.27940000  0.05200000  0.94820000  1.0
  C  C45  1  0.34530000  0.12810000  0.91960000  1.0
  C  C46  1  0.10390000  0.84390000  0.08180000  1.0
  C  C47  1  0.17290000  0.91460000  0.05070000  1.0
  C  C48  1  0.15800000  0.01520000  0.06490000  1.0
  C  C49  1  0.07590000  0.04110000  0.11300000  1.0
  C  C50  1  0.01170000  0.96650000  0.14460000  1.0
  C  C51  1  0.69320000  0.72520000  0.96510000  1.0
  C  C52  1  0.75980000  0.79420000  0.93080000  1.0
  C  C53  1  0.77170000  0.90830000  0.97280000  1.0
  C  C54  1  0.72060000  0.94800000  0.05180000  1.0
  C  C55  1  0.65470000  0.87190000  0.08040000  1.0
  C  C56  1  0.89610000  0.15610000  0.91820000  1.0
  C  C57  1  0.82710000  0.08540000  0.94930000  1.0
  C  C58  1  0.84200000  0.98480000  0.93510000  1.0
  C  C59  1  0.92410000  0.95890000  0.88700000  1.0
  C  C60  1  0.98830000  0.03350000  0.85540000  1.0
  N  N61  1  0.36260000  0.23670000  0.96150000  1.0
  N  N62  1  0.02330000  0.86830000  0.12720000  1.0
  N  N63  1  0.63740000  0.76330000  0.03850000  1.0
  N  N64  1  0.97670000  0.13170000  0.87280000  1.0
  O  O65  1  0.23530000  0.68550000  0.18050000  1.0
  O  O66  1  0.56050000  0.48710000  0.08940000  1.0
  O  O67  1  0.83780000  0.87740000  0.26790000  1.0
  O  O68  1  0.05600000  0.75460000  0.47130000  1.0
  O  O69  1  0.04710000  0.75460000  0.29550000  1.0
  O  O70  1  0.78480000  0.04440000  0.36570000  1.0
  O  O71  1  0.36700000  0.58090000  0.14280000  1.0
  O  O72  1  0.86970000  0.96480000  0.46340000  1.0
  O  O73  1  0.32980000  0.65010000  0.31870000  1.0
  O  O74  1  0.71000000  0.19150000  0.51330000  1.0
  O  O75  1  0.74740000  0.63360000  0.13630000  1.0
  O  O76  1  0.90530000  0.59810000  0.31350000  1.0
  O  O77  1  0.67700000  0.57840000  0.27130000  1.0
  O  O78  1  0.99020000  0.06550000  0.38180000  1.0
  O  O79  1  0.95300000  0.45190000  0.13770000  1.0
  O  O80  1  0.73260000  0.44350000  0.12900000  1.0
  O  O81  1  0.17840000  0.48780000  0.16100000  1.0
  O  O82  1  0.10800000  0.61410000  0.33110000  1.0
  O  O83  1  0.19460000  0.47430000  0.34930000  1.0
  O  O84  1  0.75130000  0.43210000  0.31990000  1.0
  O  O85  1  0.10860000  0.39660000  0.49280000  1.0
  O  O86  1  0.92100000  0.21770000  0.33910000  1.0
  O  O87  1  0.96200000  0.41720000  0.32100000  1.0
  O  O88  1  0.16470000  0.23580000  0.54650000  1.0
  O  O89  1  0.83430000  0.36820000  0.46890000  1.0
  O  O90  1  0.76470000  0.31450000  0.81950000  1.0
  O  O91  1  0.43950000  0.51290000  0.91060000  1.0
  O  O92  1  0.16220000  0.12260000  0.73210000  1.0
  O  O93  1  0.94400000  0.24540000  0.52870000  1.0
  O  O94  1  0.95290000  0.24540000  0.70450000  1.0
  O  O95  1  0.21520000  0.95560000  0.63430000  1.0
  O  O96  1  0.63300000  0.41910000  0.85720000  1.0
  O  O97  1  0.13030000  0.03520000  0.53660000  1.0
  O  O98  1  0.67020000  0.34990000  0.68130000  1.0
  O  O99  1  0.29000000  0.80850000  0.48670000  1.0
  O  O100  1  0.25260000  0.36640000  0.86370000  1.0
  O  O101  1  0.09470000  0.40190000  0.68650000  1.0
  O  O102  1  0.32300000  0.42160000  0.72870000  1.0
  O  O103  1  0.00980000  0.93450000  0.61820000  1.0
  O  O104  1  0.04700000  0.54810000  0.86230000  1.0
  O  O105  1  0.26740000  0.55650000  0.87100000  1.0
  O  O106  1  0.82160000  0.51220000  0.83900000  1.0
  O  O107  1  0.89200000  0.38590000  0.66890000  1.0
  O  O108  1  0.80540000  0.52570000  0.65070000  1.0
  O  O109  1  0.24870000  0.56790000  0.68010000  1.0
  O  O110  1  0.89140000  0.60340000  0.50720000  1.0
  O  O111  1  0.07900000  0.78230000  0.66090000  1.0
  O  O112  1  0.03800000  0.58280000  0.67900000  1.0
  O  O113  1  0.83530000  0.76420000  0.45350000  1.0
  O  O114  1  0.16570000  0.63180000  0.53110000  1.0
