# generated using pymatgen
data_GdZnH6C12(NO2)4
_symmetry_space_group_name_H-M   'P 1'
_cell_length_a   9.22360000
_cell_length_b   13.04210000
_cell_length_c   18.63890000
_cell_angle_alpha   72.10350000
_cell_angle_beta   75.67460000
_cell_angle_gamma   69.29180000
_symmetry_Int_Tables_number   1
_chemical_formula_structural   GdZnH6C12(NO2)4
_chemical_formula_sum   'Gd4 Zn4 H24 C48 N16 O32'
_cell_volume   1971.42664107
_cell_formula_units_Z   4
loop_
 _symmetry_equiv_pos_site_id
 _symmetry_equiv_pos_as_xyz
  1  'x, y, z'
loop_
 _atom_site_type_symbol
 _atom_site_label
 _atom_site_symmetry_multiplicity
 _atom_site_fract_x
 _atom_site_fract_y
 _atom_site_fract_z
 _atom_site_occupancy
  Gd  Gd0  1  0.26255000  0.58914000  0.49308000  1.0
  Gd  Gd1  1  0.65523000  0.08914000  0.99308000  1.0
  Gd  Gd2  1  0.73745000  0.41086000  0.50692000  1.0
  Gd  Gd3  1  0.34477000  0.91086000  0.00692000  1.0
  Zn  Zn4  1  0.72643000  0.41054000  0.16610000  1.0
  Zn  Zn5  1  0.27357000  0.58946000  0.83390000  1.0
  Zn  Zn6  1  0.30307000  0.08946000  0.33390000  1.0
  Zn  Zn7  1  0.69693000  0.91054000  0.66610000  1.0
  H  H8  1  0.38580000  0.89790000  0.58270000  1.0
  H  H9  1  0.13360000  0.39790000  0.08270000  1.0
  H  H10  1  0.13670000  0.44910000  0.14790000  1.0
  H  H11  1  0.73370000  0.05090000  0.35210000  1.0
  H  H12  1  0.86330000  0.55090000  0.85210000  1.0
  H  H13  1  0.26630000  0.94910000  0.64790000  1.0
  H  H14  1  0.36340000  0.41840000  0.30640000  1.0
  H  H15  1  0.50110000  0.33690000  0.35090000  1.0
  H  H16  1  0.91180000  0.91840000  0.80640000  1.0
  H  H17  1  0.65580000  0.69300000  0.63440000  1.0
  H  H18  1  0.98320000  0.80700000  0.86560000  1.0
  H  H19  1  0.23030000  0.99380000  0.56400000  1.0
  H  H20  1  0.81110000  0.83690000  0.85090000  1.0
  H  H21  1  0.21190000  0.49380000  0.06400000  1.0
  H  H22  1  0.78810000  0.50620000  0.93600000  1.0
  H  H23  1  0.34420000  0.30700000  0.36560000  1.0
  H  H24  1  0.01680000  0.19300000  0.13440000  1.0
  H  H25  1  0.76970000  0.00620000  0.43600000  1.0
  H  H26  1  0.86640000  0.60210000  0.91730000  1.0
  H  H27  1  0.49890000  0.66310000  0.64910000  1.0
  H  H28  1  0.61420000  0.10210000  0.41730000  1.0
  H  H29  1  0.63660000  0.58160000  0.69360000  1.0
  H  H30  1  0.18890000  0.16310000  0.14910000  1.0
  H  H31  1  0.08820000  0.08160000  0.19360000  1.0
  C  C32  1  0.02620000  0.22050000  0.23330000  1.0
  C  C33  1  0.11640000  0.65840000  0.70060000  1.0
  C  C34  1  0.39310000  0.05250000  0.58030000  1.0
  C  C35  1  0.72740000  0.24070000  0.09170000  1.0
  C  C36  1  0.91480000  0.84090000  0.82770000  1.0
  C  C37  1  0.97380000  0.77950000  0.76670000  1.0
  C  C38  1  0.58340000  0.65910000  0.67230000  1.0
  C  C39  1  0.61170000  0.23220000  0.16200000  1.0
  C  C40  1  0.12780000  0.46560000  0.09500000  1.0
  C  C41  1  0.38310000  0.34510000  0.52010000  1.0
  C  C42  1  0.61690000  0.65490000  0.47990000  1.0
  C  C43  1  0.24830000  0.15490000  0.97990000  1.0
  C  C44  1  0.68840000  0.03440000  0.40500000  1.0
  C  C45  1  0.47540000  0.84160000  0.79940000  1.0
  C  C46  1  0.28380000  0.86140000  0.41700000  1.0
  C  C47  1  0.00590000  0.26780000  0.33800000  1.0
  C  C48  1  0.27260000  0.75930000  0.90830000  1.0
  C  C49  1  0.80590000  0.72050000  0.04170000  1.0
  C  C50  1  0.71620000  0.13860000  0.58300000  1.0
  C  C51  1  0.43780000  0.36140000  0.91700000  1.0
  C  C52  1  0.99410000  0.73220000  0.66200000  1.0
  C  C53  1  0.52460000  0.15840000  0.20060000  1.0
  C  C54  1  0.75170000  0.84510000  0.02010000  1.0
  C  C55  1  0.43190000  0.22050000  0.54170000  1.0
  C  C56  1  0.38830000  0.76780000  0.83800000  1.0
  C  C57  1  0.60690000  0.94750000  0.41970000  1.0
  C  C58  1  0.94020000  0.74070000  0.59170000  1.0
  C  C59  1  0.27010000  0.36280000  0.92700000  1.0
  C  C60  1  0.88360000  0.34160000  0.29940000  1.0
  C  C61  1  0.56220000  0.63860000  0.08300000  1.0
  C  C62  1  0.31160000  0.96560000  0.59500000  1.0
  C  C63  1  0.97410000  0.55250000  0.08030000  1.0
  C  C64  1  0.72990000  0.63720000  0.07300000  1.0
  C  C65  1  0.50250000  0.06050000  0.18490000  1.0
  C  C66  1  0.08520000  0.15910000  0.17230000  1.0
  C  C67  1  0.56810000  0.77950000  0.45830000  1.0
  C  C68  1  0.02590000  0.44750000  0.91970000  1.0
  C  C69  1  0.44010000  0.86280000  0.42700000  1.0
  C  C70  1  0.25210000  0.56050000  0.68490000  1.0
  C  C71  1  0.49750000  0.93950000  0.81510000  1.0
  C  C72  1  0.52000000  0.72050000  0.73330000  1.0
  C  C73  1  0.19410000  0.27950000  0.95830000  1.0
  C  C74  1  0.55990000  0.13720000  0.57300000  1.0
  C  C75  1  0.41660000  0.34090000  0.32770000  1.0
  C  C76  1  0.48000000  0.27950000  0.26670000  1.0
  C  C77  1  0.87220000  0.53440000  0.90500000  1.0
  C  C78  1  0.74790000  0.43950000  0.31510000  1.0
  C  C79  1  0.05980000  0.25930000  0.40830000  1.0
  N  N80  1  0.55740000  0.81060000  0.73400000  1.0
  N  N81  1  0.53210000  0.03470000  0.59710000  1.0
  N  N82  1  0.44260000  0.18940000  0.26600000  1.0
  N  N83  1  0.10200000  0.68940000  0.76600000  1.0
  N  N84  1  0.90450000  0.80780000  0.70460000  1.0
  N  N85  1  0.89800000  0.31060000  0.23400000  1.0
  N  N86  1  0.41690000  0.69220000  0.79540000  1.0
  N  N87  1  0.67220000  0.83750000  0.45150000  1.0
  N  N88  1  0.83610000  0.53470000  0.09710000  1.0
  N  N89  1  0.46790000  0.96530000  0.40290000  1.0
  N  N90  1  0.16390000  0.46530000  0.90290000  1.0
  N  N91  1  0.09550000  0.19220000  0.29540000  1.0
  N  N92  1  0.32780000  0.16250000  0.54850000  1.0
  N  N93  1  0.96120000  0.66250000  0.04850000  1.0
  N  N94  1  0.03880000  0.33750000  0.95150000  1.0
  N  N95  1  0.58310000  0.30780000  0.20460000  1.0
  O  O96  1  0.21180000  0.68000000  0.92500000  1.0
  O  O97  1  0.28440000  0.53520000  0.62100000  1.0
  O  O98  1  0.75840000  0.60360000  0.48460000  1.0
  O  O99  1  0.33360000  0.50550000  0.73730000  1.0
  O  O100  1  0.38557000  0.10116000  0.99490000  1.0
  O  O101  1  0.79480000  0.05130000  0.62210000  1.0
  O  O102  1  0.71560000  0.46480000  0.37900000  1.0
  O  O103  1  0.53550000  0.27540000  0.94940000  1.0
  O  O104  1  0.42360000  0.00550000  0.23730000  1.0
  O  O105  1  0.78820000  0.32000000  0.07500000  1.0
  O  O106  1  0.98690000  0.33020000  0.44800000  1.0
  O  O107  1  0.76510000  0.16980000  0.05200000  1.0
  O  O108  1  0.53180000  0.55130000  0.12210000  1.0
  O  O109  1  0.55940000  0.03520000  0.12100000  1.0
  O  O110  1  0.61443000  0.89884000  0.00510000  1.0
  O  O111  1  0.51837000  0.60116000  0.49490000  1.0
  O  O112  1  0.66640000  0.49450000  0.26270000  1.0
  O  O113  1  0.20520000  0.94870000  0.37790000  1.0
  O  O114  1  0.01310000  0.66980000  0.55200000  1.0
  O  O115  1  0.15340000  0.10360000  0.98460000  1.0
  O  O116  1  0.81680000  0.82000000  0.57500000  1.0
  O  O117  1  0.57640000  0.99450000  0.76270000  1.0
  O  O118  1  0.24160000  0.39640000  0.51540000  1.0
  O  O119  1  0.84660000  0.89640000  0.01540000  1.0
  O  O120  1  0.76030000  0.22460000  0.55060000  1.0
  O  O121  1  0.23970000  0.77540000  0.44940000  1.0
  O  O122  1  0.18320000  0.18000000  0.42500000  1.0
  O  O123  1  0.46820000  0.44870000  0.87790000  1.0
  O  O124  1  0.23490000  0.83020000  0.94800000  1.0
  O  O125  1  0.44060000  0.96480000  0.87900000  1.0
  O  O126  1  0.46450000  0.72460000  0.05060000  1.0
  O  O127  1  0.48163000  0.39884000  0.50510000  1.0
