# generated using pymatgen
data_ScH4C8O5
_symmetry_space_group_name_H-M   'P 1'
_cell_length_a   12.38500000
_cell_length_b   15.35200000
_cell_length_c   25.03780000
_cell_angle_alpha   107.85300000
_cell_angle_beta   104.31900000
_cell_angle_gamma   90.00010000
_symmetry_Int_Tables_number   1
_chemical_formula_structural   ScH4C8O5
_chemical_formula_sum   'Sc12 H48 C96 O60'
_cell_volume   4375.67740353
_cell_formula_units_Z   12
loop_
 _symmetry_equiv_pos_site_id
 _symmetry_equiv_pos_as_xyz
  1  'x, y, z'
loop_
 _atom_site_type_symbol
 _atom_site_label
 _atom_site_symmetry_multiplicity
 _atom_site_fract_x
 _atom_site_fract_y
 _atom_site_fract_z
 _atom_site_occupancy
  Sc  Sc0  1  0.47934000  0.04169000  0.20854000  1.0
  Sc  Sc1  1  0.68745000  0.99980000  0.12486000  1.0
  Sc  Sc2  1  0.60412000  0.79173000  0.45818000  1.0
  Sc  Sc3  1  0.22920000  0.16685000  0.20854000  1.0
  Sc  Sc4  1  0.93741000  0.12506000  0.12486000  1.0
  Sc  Sc5  1  0.35406000  0.66645000  0.45818000  1.0
  Sc  Sc6  1  0.27080000  0.45831000  0.79146000  1.0
  Sc  Sc7  1  0.56259000  0.50020000  0.87514000  1.0
  Sc  Sc8  1  0.14594000  0.70827000  0.54182000  1.0
  Sc  Sc9  1  0.02066000  0.33315000  0.79146000  1.0
  Sc  Sc10  1  0.81255000  0.37494000  0.87514000  1.0
  Sc  Sc11  1  0.89588000  0.83355000  0.54182000  1.0
  H  H12  1  0.56900000  0.12810000  0.15800000  1.0
  H  H13  1  0.92430000  0.93900000  0.25560000  1.0
  H  H14  1  0.10120000  0.01440000  0.29340000  1.0
  H  H15  1  0.40500000  0.91670000  0.33360000  1.0
  H  H16  1  0.14210000  0.81970000  0.37460000  1.0
  H  H17  1  0.00160000  0.89580000  0.41180000  1.0
  H  H18  1  0.67840000  0.91760000  0.33340000  1.0
  H  H19  1  0.24240000  0.84800000  0.07740000  1.0
  H  H20  1  0.06610000  0.88590000  0.03920000  1.0
  H  H21  1  0.08900000  0.02990000  0.15800000  1.0
  H  H22  1  0.83130000  0.31660000  0.25560000  1.0
  H  H23  1  0.69220000  0.27900000  0.29340000  1.0
  H  H24  1  0.42860000  0.41690000  0.33360000  1.0
  H  H25  1  0.73250000  0.55490000  0.37460000  1.0
  H  H26  1  0.91020000  0.51600000  0.41180000  1.0
  H  H27  1  0.15500000  0.41580000  0.33340000  1.0
  H  H28  1  0.33500000  0.22940000  0.07740000  1.0
  H  H29  1  0.47310000  0.15330000  0.03920000  1.0
  H  H30  1  0.41100000  0.37190000  0.84200000  1.0
  H  H31  1  0.66870000  0.56100000  0.74440000  1.0
  H  H32  1  0.80780000  0.48560000  0.70660000  1.0
  H  H33  1  0.07140000  0.58330000  0.66640000  1.0
  H  H34  1  0.76750000  0.68030000  0.62540000  1.0
  H  H35  1  0.58980000  0.60420000  0.58820000  1.0
  H  H36  1  0.34500000  0.58240000  0.66666667  1.0
  H  H37  1  0.16500000  0.65200000  0.92260000  1.0
  H  H38  1  0.02690000  0.61410000  0.96080000  1.0
  H  H39  1  0.93100000  0.47010000  0.84200000  1.0
  H  H40  1  0.57570000  0.18340000  0.74440000  1.0
  H  H41  1  0.39880000  0.22100000  0.70660000  1.0
  H  H42  1  0.09500000  0.08310000  0.66640000  1.0
  H  H43  1  0.35790000  0.94510000  0.62540000  1.0
  H  H44  1  0.49840000  0.98400000  0.58820000  1.0
  H  H45  1  0.82160000  0.08420000  0.66666667  1.0
  H  H46  1  0.25760000  0.27060000  0.92260000  1.0
  H  H47  1  0.43390000  0.34670000  0.96080000  1.0
  H  H48  1  0.85060000  0.10060000  0.20120000  1.0
  H  H49  1  0.64940000  0.39940000  0.79880000  1.0
  H  H50  1  0.31610000  0.06610000  0.13220000  1.0
  H  H51  1  0.18390000  0.43390000  0.86780000  1.0
  H  H52  1  0.51720000  0.76720000  0.53440000  1.0
  H  H53  1  0.98280000  0.73280000  0.46560000  1.0
  H  H54  1  0.75000000  0.69800000  0.50000000  1.0
  H  H55  1  0.25000000  0.80200000  0.50000000  1.0
  H  H56  1  0.48760000  0.75000000  0.00000000  1.0
  H  H57  1  0.76140000  0.75000000  0.00000000  1.0
  H  H58  1  0.01240000  0.25000000  0.00000000  1.0
  H  H59  1  0.73860000  0.25000000  0.00000000  1.0
  C  C60  1  0.70460000  0.95300000  0.24060000  1.0
  C  C61  1  0.78930000  0.93130000  0.28760000  1.0
  C  C62  1  0.90180000  0.93010000  0.28720000  1.0
  C  C63  1  0.98080000  0.91590000  0.33320000  1.0
  C  C64  1  0.10210000  0.91590000  0.33320000  1.0
  C  C65  1  0.14720000  0.97400000  0.30920000  1.0
  C  C66  1  0.25980000  0.97220000  0.30820000  1.0
  C  C67  1  0.30420000  0.02830000  0.27880000  1.0
  C  C68  1  0.32820000  0.91660000  0.33340000  1.0
  C  C69  1  0.28440000  0.86050000  0.35840000  1.0
  C  C70  1  0.35890000  0.80560000  0.38860000  1.0
  C  C71  1  0.17160000  0.85920000  0.35800000  1.0
  C  C72  1  0.94740000  0.90310000  0.37960000  1.0
  C  C73  1  0.83420000  0.90110000  0.37900000  1.0
  C  C74  1  0.75500000  0.91680000  0.33320000  1.0
  C  C75  1  0.79680000  0.88110000  0.42600000  1.0
  C  C76  1  0.46100000  0.88080000  0.09300000  1.0
  C  C77  1  0.37900000  0.81030000  0.04580000  1.0
  C  C78  1  0.26490000  0.80820000  0.04540000  1.0
  C  C79  1  0.01960000  0.82990000  0.02340000  1.0
  C  C80  1  0.90680000  0.83120000  0.02480000  1.0
  C  C81  1  0.86240000  0.91640000  0.05520000  1.0
  C  C82  1  0.03600000  0.28760000  0.24060000  1.0
  C  C83  1  0.99830000  0.35630000  0.28760000  1.0
  C  C84  1  0.88540000  0.35710000  0.28720000  1.0
  C  C85  1  0.85240000  0.41730000  0.33320000  1.0
  C  C86  1  0.73110000  0.41730000  0.33320000  1.0
  C  C87  1  0.66200000  0.33520000  0.30920000  1.0
  C  C88  1  0.54840000  0.33600000  0.30820000  1.0
  C  C89  1  0.47460000  0.25050000  0.27880000  1.0
  C  C90  1  0.50520000  0.41680000  0.33340000  1.0
  C  C91  1  0.57400000  0.49790000  0.35840000  1.0
  C  C92  1  0.52970000  0.58300000  0.38860000  1.0
  C  C93  1  0.68640000  0.49880000  0.35800000  1.0
  C  C94  1  0.93220000  0.47650000  0.37960000  1.0
  C  C95  1  0.04480000  0.47790000  0.37900000  1.0
  C  C96  1  0.07820000  0.41640000  0.33320000  1.0
  C  C97  1  0.12920000  0.54490000  0.42600000  1.0
  C  C98  1  0.13200000  0.21220000  0.09300000  1.0
  C  C99  1  0.16680000  0.23550000  0.04580000  1.0
  C  C100  1  0.28050000  0.23720000  0.04540000  1.0
  C  C101  1  0.50380000  0.19350000  0.02340000  1.0
  C  C102  1  0.61800000  0.19360000  0.02480000  1.0
  C  C103  1  0.69280000  0.13880000  0.05520000  1.0
  C  C104  1  0.46400000  0.54700000  0.75940000  1.0
  C  C105  1  0.50170000  0.56870000  0.71240000  1.0
  C  C106  1  0.61460000  0.56990000  0.71280000  1.0
  C  C107  1  0.64760000  0.58410000  0.66680000  1.0
  C  C108  1  0.76890000  0.58410000  0.66680000  1.0
  C  C109  1  0.83800000  0.52600000  0.69080000  1.0
  C  C110  1  0.95160000  0.52780000  0.69180000  1.0
  C  C111  1  0.02540000  0.47170000  0.72120000  1.0
  C  C112  1  0.99480000  0.58340000  0.66666667  1.0
  C  C113  1  0.92600000  0.63950000  0.64160000  1.0
  C  C114  1  0.97030000  0.69440000  0.61140000  1.0
  C  C115  1  0.81360000  0.64080000  0.64200000  1.0
  C  C116  1  0.56780000  0.59690000  0.62040000  1.0
  C  C117  1  0.45520000  0.59890000  0.62100000  1.0
  C  C118  1  0.42180000  0.58320000  0.66680000  1.0
  C  C119  1  0.37080000  0.61890000  0.57400000  1.0
  C  C120  1  0.36800000  0.61920000  0.90700000  1.0
  C  C121  1  0.33320000  0.68970000  0.95420000  1.0
  C  C122  1  0.21950000  0.69180000  0.95460000  1.0
  C  C123  1  0.99620000  0.67010000  0.97660000  1.0
  C  C124  1  0.88200000  0.66880000  0.97520000  1.0
  C  C125  1  0.80720000  0.58360000  0.94480000  1.0
  C  C126  1  0.79540000  0.21240000  0.75940000  1.0
  C  C127  1  0.71070000  0.14370000  0.71240000  1.0
  C  C128  1  0.59820000  0.14290000  0.71280000  1.0
  C  C129  1  0.51920000  0.08270000  0.66680000  1.0
  C  C130  1  0.39790000  0.08270000  0.66680000  1.0
  C  C131  1  0.35280000  0.16480000  0.69080000  1.0
  C  C132  1  0.24020000  0.16400000  0.69180000  1.0
  C  C133  1  0.19580000  0.24950000  0.72120000  1.0
  C  C134  1  0.17180000  0.08320000  0.66666667  1.0
  C  C135  1  0.21560000  0.00210000  0.64160000  1.0
  C  C136  1  0.14110000  0.91700000  0.61140000  1.0
  C  C137  1  0.32840000  0.00120000  0.64200000  1.0
  C  C138  1  0.55260000  0.02350000  0.62040000  1.0
  C  C139  1  0.66580000  0.02210000  0.62100000  1.0
  C  C140  1  0.74500000  0.08360000  0.66680000  1.0
  C  C141  1  0.70320000  0.95510000  0.57400000  1.0
  C  C142  1  0.03900000  0.28780000  0.90700000  1.0
  C  C143  1  0.12100000  0.26450000  0.95420000  1.0
  C  C144  1  0.23510000  0.26280000  0.95460000  1.0
  C  C145  1  0.48040000  0.30650000  0.97660000  1.0
  C  C146  1  0.59320000  0.30640000  0.97520000  1.0
  C  C147  1  0.63760000  0.36120000  0.94480000  1.0
  C  C148  1  0.41090000  0.75000000  0.00000000  1.0
  C  C149  1  0.18590000  0.75000000  0.00000000  1.0
  C  C150  1  0.06370000  0.75000000  0.00000000  1.0
  C  C151  1  0.83810000  0.75000000  0.00000000  1.0
  C  C152  1  0.08910000  0.25000000  0.00000000  1.0
  C  C153  1  0.31410000  0.25000000  0.00000000  1.0
  C  C154  1  0.43630000  0.25000000  0.00000000  1.0
  C  C155  1  0.66190000  0.25000000  0.00000000  1.0
  O  O156  1  0.72913000  0.94103000  0.19266000  1.0
  O  O157  1  0.61517000  0.98227000  0.25174000  1.0
  O  O158  1  0.69629000  0.85079000  0.41518000  1.0
  O  O159  1  0.86998000  0.89268000  0.47416000  1.0
  O  O160  1  0.31552000  0.73722000  0.39624000  1.0
  O  O161  1  0.46330000  0.82960000  0.40440000  1.0
  O  O162  1  0.39228000  0.00348000  0.26216000  1.0
  O  O163  1  0.25311000  0.09641000  0.27042000  1.0
  O  O164  1  0.55194000  0.89784000  0.08168000  1.0
  O  O165  1  0.43808000  0.91568000  0.14136000  1.0
  O  O166  1  0.91360000  0.99290000  0.06280000  1.0
  O  O167  1  0.77400000  0.90830000  0.07120000  1.0
  O  O168  1  0.58368000  0.08098000  0.16716000  1.0
  O  O169  1  0.96353000  0.25163000  0.19266000  1.0
  O  O170  1  0.13657000  0.26947000  0.25174000  1.0
  O  O171  1  0.21889000  0.56439000  0.41518000  1.0
  O  O172  1  0.10418000  0.58148000  0.47416000  1.0
  O  O173  1  0.58072000  0.65902000  0.39624000  1.0
  O  O174  1  0.44110000  0.57480000  0.40440000  1.0
  O  O175  1  0.36988000  0.25868000  0.26216000  1.0
  O  O176  1  0.51731000  0.17401000  0.27042000  1.0
  O  O177  1  0.02974000  0.18384000  0.08168000  1.0
  O  O178  1  0.20328000  0.22568000  0.14136000  1.0
  O  O179  1  0.64920000  0.06990000  0.06280000  1.0
  O  O180  1  0.79720000  0.16290000  0.07120000  1.0
  O  O181  1  0.08348000  0.08618000  0.16716000  1.0
  O  O182  1  0.53647000  0.55897000  0.80734000  1.0
  O  O183  1  0.36343000  0.51773000  0.74826000  1.0
  O  O184  1  0.28111000  0.64921000  0.58482000  1.0
  O  O185  1  0.39582000  0.60732000  0.52584000  1.0
  O  O186  1  0.91928000  0.76278000  0.60376000  1.0
  O  O187  1  0.05890000  0.67040000  0.59560000  1.0
  O  O188  1  0.13012000  0.49652000  0.73784000  1.0
  O  O189  1  0.98269000  0.40359000  0.72958000  1.0
  O  O190  1  0.47026000  0.60216000  0.91832000  1.0
  O  O191  1  0.29672000  0.58432000  0.85864000  1.0
  O  O192  1  0.85080000  0.50710000  0.93720000  1.0
  O  O193  1  0.70280000  0.59170000  0.92880000  1.0
  O  O194  1  0.41652000  0.41902000  0.83284000  1.0
  O  O195  1  0.77087000  0.24837000  0.80734000  1.0
  O  O196  1  0.88483000  0.23053000  0.74826000  1.0
  O  O197  1  0.80371000  0.93561000  0.58482000  1.0
  O  O198  1  0.63002000  0.91852000  0.52584000  1.0
  O  O199  1  0.18448000  0.84098000  0.60376000  1.0
  O  O200  1  0.03670000  0.92520000  0.59560000  1.0
  O  O201  1  0.10772000  0.24132000  0.73784000  1.0
  O  O202  1  0.24689000  0.32599000  0.72958000  1.0
  O  O203  1  0.94806000  0.31616000  0.91832000  1.0
  O  O204  1  0.06192000  0.27432000  0.85864000  1.0
  O  O205  1  0.58640000  0.43010000  0.93720000  1.0
  O  O206  1  0.72600000  0.33710000  0.92880000  1.0
  O  O207  1  0.91632000  0.41382000  0.83284000  1.0
  O  O208  1  0.83249000  0.08249000  0.16498000  1.0
  O  O209  1  0.66751000  0.41751000  0.83502000  1.0
  O  O210  1  0.33420000  0.08420000  0.16840000  1.0
  O  O211  1  0.16580000  0.41580000  0.83160000  1.0
  O  O212  1  0.49910000  0.74910000  0.49820000  1.0
  O  O213  1  0.00090000  0.75090000  0.50180000  1.0
  O  O214  1  0.75000000  0.75240000  0.50000000  1.0
  O  O215  1  0.25000000  0.74760000  0.50000000  1.0
