# generated using pymatgen
data_Zn2H22C33N6O7
_symmetry_space_group_name_H-M   'P 1'
_cell_length_a   6.18020000
_cell_length_b   23.31270000
_cell_length_c   29.42180000
_cell_angle_alpha   90.00000000
_cell_angle_beta   90.00000000
_cell_angle_gamma   95.66300000
_symmetry_Int_Tables_number   1
_chemical_formula_structural   Zn2H22C33N6O7
_chemical_formula_sum   'Zn8 H88 C132 N24 O28'
_cell_volume   4218.32056683
_cell_formula_units_Z   4
loop_
 _symmetry_equiv_pos_site_id
 _symmetry_equiv_pos_as_xyz
  1  'x, y, z'
loop_
 _atom_site_type_symbol
 _atom_site_label
 _atom_site_symmetry_multiplicity
 _atom_site_fract_x
 _atom_site_fract_y
 _atom_site_fract_z
 _atom_site_occupancy
  Zn  Zn0  1  0.52453000  0.73077000  0.92375000  1.0
  Zn  Zn1  1  0.47972000  0.75274000  0.53910000  1.0
  Zn  Zn2  1  0.47547000  0.76923000  0.42375000  1.0
  Zn  Zn3  1  0.52028000  0.74726000  0.03910000  1.0
  Zn  Zn4  1  0.47547000  0.26923000  0.07625000  1.0
  Zn  Zn5  1  0.52028000  0.24726000  0.46090000  1.0
  Zn  Zn6  1  0.52453000  0.23077000  0.57625000  1.0
  Zn  Zn7  1  0.47972000  0.25274000  0.96090000  1.0
  H  H8  1  0.47040000  0.71010000  0.75330000  1.0
  H  H9  1  0.80800000  0.78270000  0.76000000  1.0
  H  H10  1  0.99650000  0.77020000  0.82740000  1.0
  H  H11  1  0.12220000  0.71410000  0.63530000  1.0
  H  H12  1  0.91840000  0.71500000  0.56940000  1.0
  H  H13  1  0.49940000  0.80710000  0.62920000  1.0
  H  H14  1  0.68040000  0.80590000  0.69740000  1.0
  H  H15  1  0.77670000  0.37180000  0.97710000  1.0
  H  H16  1  0.21490000  0.51120000  0.90160000  1.0
  H  H17  1  0.34600000  0.42280000  0.91710000  1.0
  H  H18  1  0.55990000  0.52860000  0.96490000  1.0
  H  H19  1  0.42690000  0.61650000  0.96030000  1.0
  H  H20  1  0.92880000  0.67840000  0.88810000  1.0
  H  H21  1  0.08310000  0.59220000  0.89280000  1.0
  H  H22  1  0.98380000  0.10220000  0.93920000  1.0
  H  H23  1  0.37210000  0.94530000  0.94750000  1.0
  H  H24  1  0.54750000  0.03660000  0.95800000  1.0
  H  H25  1  0.70390000  0.93810000  0.89510000  1.0
  H  H26  1  0.51810000  0.84800000  0.89070000  1.0
  H  H27  1  0.97120000  0.77960000  0.95930000  1.0
  H  H28  1  0.16980000  0.86750000  0.96600000  1.0
  H  H29  1  0.27700000  0.71600000  0.97800000  1.0
  H  H30  1  0.52960000  0.78990000  0.25330000  1.0
  H  H31  1  0.19200000  0.71730000  0.26000000  1.0
  H  H32  1  0.00350000  0.72980000  0.32740000  1.0
  H  H33  1  0.87780000  0.78590000  0.13530000  1.0
  H  H34  1  0.08160000  0.78500000  0.06940000  1.0
  H  H35  1  0.50060000  0.69290000  0.12920000  1.0
  H  H36  1  0.31960000  0.69410000  0.19740000  1.0
  H  H37  1  0.22330000  0.12820000  0.47710000  1.0
  H  H38  1  0.78510000  0.98880000  0.40160000  1.0
  H  H39  1  0.65400000  0.07720000  0.41710000  1.0
  H  H40  1  0.44010000  0.97140000  0.46490000  1.0
  H  H41  1  0.57310000  0.88350000  0.46030000  1.0
  H  H42  1  0.07120000  0.82160000  0.38810000  1.0
  H  H43  1  0.91690000  0.90780000  0.39280000  1.0
  H  H44  1  0.01620000  0.39780000  0.43920000  1.0
  H  H45  1  0.62790000  0.55470000  0.44750000  1.0
  H  H46  1  0.45250000  0.46340000  0.45800000  1.0
  H  H47  1  0.29610000  0.56190000  0.39510000  1.0
  H  H48  1  0.48190000  0.65200000  0.39070000  1.0
  H  H49  1  0.02880000  0.72040000  0.45930000  1.0
  H  H50  1  0.83020000  0.63250000  0.46600000  1.0
  H  H51  1  0.72300000  0.78400000  0.47800000  1.0
  H  H52  1  0.52960000  0.28990000  0.24670000  1.0
  H  H53  1  0.19200000  0.21730000  0.24000000  1.0
  H  H54  1  0.00350000  0.22980000  0.17260000  1.0
  H  H55  1  0.87780000  0.28590000  0.36470000  1.0
  H  H56  1  0.08160000  0.28500000  0.43060000  1.0
  H  H57  1  0.50060000  0.19290000  0.37080000  1.0
  H  H58  1  0.31960000  0.19410000  0.30260000  1.0
  H  H59  1  0.22330000  0.62820000  0.02290000  1.0
  H  H60  1  0.78510000  0.48880000  0.09840000  1.0
  H  H61  1  0.65400000  0.57720000  0.08290000  1.0
  H  H62  1  0.44010000  0.47140000  0.03510000  1.0
  H  H63  1  0.57310000  0.38350000  0.03970000  1.0
  H  H64  1  0.07120000  0.32160000  0.11190000  1.0
  H  H65  1  0.91690000  0.40780000  0.10720000  1.0
  H  H66  1  0.01620000  0.89780000  0.06080000  1.0
  H  H67  1  0.62790000  0.05470000  0.05250000  1.0
  H  H68  1  0.45250000  0.96340000  0.04200000  1.0
  H  H69  1  0.29610000  0.06190000  0.10490000  1.0
  H  H70  1  0.48190000  0.15200000  0.10930000  1.0
  H  H71  1  0.02880000  0.22040000  0.04070000  1.0
  H  H72  1  0.83020000  0.13250000  0.03400000  1.0
  H  H73  1  0.72300000  0.28400000  0.02200000  1.0
  H  H74  1  0.47040000  0.21010000  0.74670000  1.0
  H  H75  1  0.80800000  0.28270000  0.74000000  1.0
  H  H76  1  0.99650000  0.27020000  0.67260000  1.0
  H  H77  1  0.12220000  0.21410000  0.86470000  1.0
  H  H78  1  0.91840000  0.21500000  0.93060000  1.0
  H  H79  1  0.49940000  0.30710000  0.87080000  1.0
  H  H80  1  0.68040000  0.30590000  0.80260000  1.0
  H  H81  1  0.77670000  0.87180000  0.52290000  1.0
  H  H82  1  0.21490000  0.01120000  0.59840000  1.0
  H  H83  1  0.34600000  0.92280000  0.58290000  1.0
  H  H84  1  0.55990000  0.02860000  0.53510000  1.0
  H  H85  1  0.42690000  0.11650000  0.53970000  1.0
  H  H86  1  0.92880000  0.17840000  0.61190000  1.0
  H  H87  1  0.08310000  0.09220000  0.60720000  1.0
  H  H88  1  0.98380000  0.60220000  0.56080000  1.0
  H  H89  1  0.37210000  0.44530000  0.55250000  1.0
  H  H90  1  0.54750000  0.53660000  0.54200000  1.0
  H  H91  1  0.70390000  0.43810000  0.60490000  1.0
  H  H92  1  0.51810000  0.34800000  0.60930000  1.0
  H  H93  1  0.97120000  0.27960000  0.54070000  1.0
  H  H94  1  0.16980000  0.36750000  0.53400000  1.0
  H  H95  1  0.27700000  0.21600000  0.52200000  1.0
  C  C96  1  0.39360000  0.73460000  0.83890000  1.0
  C  C97  1  0.25740000  0.74000000  0.79760000  1.0
  C  C98  1  0.33290000  0.72500000  0.75490000  1.0
  C  C99  1  0.03410000  0.75210000  0.71930000  1.0
  C  C100  1  0.94510000  0.76750000  0.75950000  1.0
  C  C101  1  0.05730000  0.76070000  0.79910000  1.0
  C  C102  1  0.92010000  0.75720000  0.67520000  1.0
  C  C103  1  0.99080000  0.73200000  0.63520000  1.0
  C  C104  1  0.86990000  0.73330000  0.59585000  1.0
  C  C105  1  0.62450000  0.78660000  0.63100000  1.0
  C  C106  1  0.73210000  0.78650000  0.67180000  1.0
  C  C107  1  0.15630000  0.33190000  0.96350000  1.0
  C  C108  1  0.07690000  0.38870000  0.95071000  1.0
  C  C109  1  0.87050000  0.40130000  0.96300000  1.0
  C  C110  1  0.92690000  0.49300000  0.93470000  1.0
  C  C111  1  0.12950000  0.48260000  0.91850000  1.0
  C  C112  1  0.20550000  0.43030000  0.92720000  1.0
  C  C113  1  0.83900000  0.55000000  0.92990000  1.0
  C  C114  1  0.64120000  0.55920000  0.94920000  1.0
  C  C115  1  0.56140000  0.61140000  0.94600000  1.0
  C  C116  1  0.85370000  0.64740000  0.90440000  1.0
  C  C117  1  0.94670000  0.59590000  0.90680000  1.0
  C  C118  1  0.39920000  0.13860000  0.95780000  1.0
  C  C119  1  0.28200000  0.07950000  0.95070000  1.0
  C  C120  1  0.06570000  0.06990000  0.94100000  1.0
  C  C121  1  0.07720000  0.97150000  0.93800000  1.0
  C  C122  1  0.29230000  0.97800000  0.94610000  1.0
  C  C123  1  0.39540000  0.03200000  0.95240000  1.0
  C  C124  1  0.95900000  0.91330000  0.93240000  1.0
  C  C125  1  0.76170000  0.90610000  0.90900000  1.0
  C  C126  1  0.65320000  0.85220000  0.90630000  1.0
  C  C127  1  0.91600000  0.81240000  0.94620000  1.0
  C  C128  1  0.03450000  0.86470000  0.95040000  1.0
  C  C129  1  0.60640000  0.76540000  0.33890000  1.0
  C  C130  1  0.74260000  0.76000000  0.29760000  1.0
  C  C131  1  0.66710000  0.77500000  0.25490000  1.0
  C  C132  1  0.96590000  0.74790000  0.21930000  1.0
  C  C133  1  0.05490000  0.73250000  0.25950000  1.0
  C  C134  1  0.94270000  0.73930000  0.29910000  1.0
  C  C135  1  0.07990000  0.74280000  0.17520000  1.0
  C  C136  1  0.00920000  0.76800000  0.13520000  1.0
  C  C137  1  0.13010000  0.76670000  0.09585000  1.0
  C  C138  1  0.37550000  0.71340000  0.13100000  1.0
  C  C139  1  0.26790000  0.71350000  0.17180000  1.0
  C  C140  1  0.84370000  0.16810000  0.46350000  1.0
  C  C141  1  0.92310000  0.11130000  0.45071000  1.0
  C  C142  1  0.12950000  0.09870000  0.46300000  1.0
  C  C143  1  0.07310000  0.00700000  0.43470000  1.0
  C  C144  1  0.87050000  0.01740000  0.41850000  1.0
  C  C145  1  0.79450000  0.06970000  0.42720000  1.0
  C  C146  1  0.16100000  0.95000000  0.42990000  1.0
  C  C147  1  0.35880000  0.94080000  0.44920000  1.0
  C  C148  1  0.43860000  0.88860000  0.44600000  1.0
  C  C149  1  0.14630000  0.85260000  0.40440000  1.0
  C  C150  1  0.05330000  0.90410000  0.40680000  1.0
  C  C151  1  0.60080000  0.36140000  0.45780000  1.0
  C  C152  1  0.71800000  0.42050000  0.45070000  1.0
  C  C153  1  0.93430000  0.43010000  0.44100000  1.0
  C  C154  1  0.92280000  0.52850000  0.43800000  1.0
  C  C155  1  0.70770000  0.52200000  0.44610000  1.0
  C  C156  1  0.60460000  0.46800000  0.45240000  1.0
  C  C157  1  0.04100000  0.58670000  0.43240000  1.0
  C  C158  1  0.23830000  0.59390000  0.40900000  1.0
  C  C159  1  0.34680000  0.64780000  0.40630000  1.0
  C  C160  1  0.08400000  0.68760000  0.44620000  1.0
  C  C161  1  0.96550000  0.63530000  0.45040000  1.0
  C  C162  1  0.60640000  0.26540000  0.16110000  1.0
  C  C163  1  0.74260000  0.26000000  0.20240000  1.0
  C  C164  1  0.66710000  0.27500000  0.24510000  1.0
  C  C165  1  0.96590000  0.24790000  0.28070000  1.0
  C  C166  1  0.05490000  0.23250000  0.24050000  1.0
  C  C167  1  0.94270000  0.23930000  0.20090000  1.0
  C  C168  1  0.07990000  0.24280000  0.32480000  1.0
  C  C169  1  0.00920000  0.26800000  0.36480000  1.0
  C  C170  1  0.13010000  0.26670000  0.40415000  1.0
  C  C171  1  0.37550000  0.21340000  0.36900000  1.0
  C  C172  1  0.26790000  0.21350000  0.32820000  1.0
  C  C173  1  0.84370000  0.66810000  0.03650000  1.0
  C  C174  1  0.92310000  0.61130000  0.04929000  1.0
  C  C175  1  0.12950000  0.59870000  0.03700000  1.0
  C  C176  1  0.07310000  0.50700000  0.06530000  1.0
  C  C177  1  0.87050000  0.51740000  0.08150000  1.0
  C  C178  1  0.79450000  0.56970000  0.07280000  1.0
  C  C179  1  0.16100000  0.45000000  0.07010000  1.0
  C  C180  1  0.35880000  0.44080000  0.05080000  1.0
  C  C181  1  0.43860000  0.38860000  0.05400000  1.0
  C  C182  1  0.14630000  0.35260000  0.09560000  1.0
  C  C183  1  0.05330000  0.40410000  0.09320000  1.0
  C  C184  1  0.60080000  0.86140000  0.04220000  1.0
  C  C185  1  0.71800000  0.92050000  0.04930000  1.0
  C  C186  1  0.93430000  0.93010000  0.05900000  1.0
  C  C187  1  0.92280000  0.02850000  0.06200000  1.0
  C  C188  1  0.70770000  0.02200000  0.05390000  1.0
  C  C189  1  0.60460000  0.96800000  0.04760000  1.0
  C  C190  1  0.04100000  0.08670000  0.06760000  1.0
  C  C191  1  0.23830000  0.09390000  0.09100000  1.0
  C  C192  1  0.34680000  0.14780000  0.09370000  1.0
  C  C193  1  0.08400000  0.18760000  0.05380000  1.0
  C  C194  1  0.96550000  0.13530000  0.04960000  1.0
  C  C195  1  0.39360000  0.23460000  0.66110000  1.0
  C  C196  1  0.25740000  0.24000000  0.70240000  1.0
  C  C197  1  0.33290000  0.22500000  0.74510000  1.0
  C  C198  1  0.03410000  0.25210000  0.78070000  1.0
  C  C199  1  0.94510000  0.26750000  0.74050000  1.0
  C  C200  1  0.05730000  0.26070000  0.70090000  1.0
  C  C201  1  0.92010000  0.25720000  0.82480000  1.0
  C  C202  1  0.99080000  0.23200000  0.86480000  1.0
  C  C203  1  0.86990000  0.23330000  0.90415000  1.0
  C  C204  1  0.62450000  0.28660000  0.86900000  1.0
  C  C205  1  0.73210000  0.28650000  0.82820000  1.0
  C  C206  1  0.15630000  0.83190000  0.53650000  1.0
  C  C207  1  0.07690000  0.88870000  0.54929000  1.0
  C  C208  1  0.87050000  0.90130000  0.53700000  1.0
  C  C209  1  0.92690000  0.99300000  0.56530000  1.0
  C  C210  1  0.12950000  0.98260000  0.58150000  1.0
  C  C211  1  0.20550000  0.93030000  0.57280000  1.0
  C  C212  1  0.83900000  0.05000000  0.57010000  1.0
  C  C213  1  0.64120000  0.05920000  0.55080000  1.0
  C  C214  1  0.56140000  0.11140000  0.55400000  1.0
  C  C215  1  0.85370000  0.14740000  0.59560000  1.0
  C  C216  1  0.94670000  0.09590000  0.59320000  1.0
  C  C217  1  0.39920000  0.63860000  0.54220000  1.0
  C  C218  1  0.28200000  0.57950000  0.54930000  1.0
  C  C219  1  0.06570000  0.56990000  0.55900000  1.0
  C  C220  1  0.07720000  0.47150000  0.56200000  1.0
  C  C221  1  0.29230000  0.47800000  0.55390000  1.0
  C  C222  1  0.39540000  0.53200000  0.54760000  1.0
  C  C223  1  0.95900000  0.41330000  0.56760000  1.0
  C  C224  1  0.76170000  0.40610000  0.59100000  1.0
  C  C225  1  0.65320000  0.35220000  0.59370000  1.0
  C  C226  1  0.91600000  0.31240000  0.55380000  1.0
  C  C227  1  0.03450000  0.36470000  0.54960000  1.0
  N  N228  1  0.22540000  0.73010000  0.71690000  1.0
  N  N229  1  0.68530000  0.75960000  0.59368000  1.0
  N  N230  1  0.79550000  0.45230000  0.95606000  1.0
  N  N231  1  0.66470000  0.65580000  0.92358000  1.0
  N  N232  1  0.96250000  0.01760000  0.93390000  1.0
  N  N233  1  0.72550000  0.80520000  0.92424000  1.0
  N  N234  1  0.77460000  0.76990000  0.21690000  1.0
  N  N235  1  0.31470000  0.74040000  0.09368000  1.0
  N  N236  1  0.20450000  0.04770000  0.45606000  1.0
  N  N237  1  0.33530000  0.84420000  0.42358000  1.0
  N  N238  1  0.03750000  0.48240000  0.43390000  1.0
  N  N239  1  0.27450000  0.69480000  0.42424000  1.0
  N  N240  1  0.77460000  0.26990000  0.28310000  1.0
  N  N241  1  0.31470000  0.24040000  0.40632000  1.0
  N  N242  1  0.20450000  0.54770000  0.04394000  1.0
  N  N243  1  0.33530000  0.34420000  0.07642000  1.0
  N  N244  1  0.03750000  0.98240000  0.06610000  1.0
  N  N245  1  0.27450000  0.19480000  0.07576000  1.0
  N  N246  1  0.22540000  0.23010000  0.78310000  1.0
  N  N247  1  0.68530000  0.25960000  0.90632000  1.0
  N  N248  1  0.79550000  0.95230000  0.54394000  1.0
  N  N249  1  0.66470000  0.15580000  0.57642000  1.0
  N  N250  1  0.96250000  0.51760000  0.56610000  1.0
  N  N251  1  0.72550000  0.30520000  0.57576000  1.0
  O  O252  1  0.30060000  0.73960000  0.87720000  1.0
  O  O253  1  0.58770000  0.72600000  0.83496000  1.0
  O  O254  1  0.05500000  0.30111000  0.99212000  1.0
  O  O255  1  0.32840000  0.32013000  0.94333000  1.0
  O  O256  1  0.28640000  0.18145000  0.95188000  1.0
  O  O257  1  0.59280000  0.14310000  0.96815000  1.0
  O  O258  1  0.38290000  0.72850000  0.98200000  1.0
  O  O259  1  0.69940000  0.76040000  0.37720000  1.0
  O  O260  1  0.41230000  0.77400000  0.33496000  1.0
  O  O261  1  0.94500000  0.19889000  0.49212000  1.0
  O  O262  1  0.67160000  0.17987000  0.44333000  1.0
  O  O263  1  0.71360000  0.31855000  0.45188000  1.0
  O  O264  1  0.40720000  0.35690000  0.46815000  1.0
  O  O265  1  0.61710000  0.77150000  0.48200000  1.0
  O  O266  1  0.69940000  0.26040000  0.12280000  1.0
  O  O267  1  0.41230000  0.27400000  0.16504000  1.0
  O  O268  1  0.94500000  0.69889000  0.00788000  1.0
  O  O269  1  0.67160000  0.67987000  0.05667000  1.0
  O  O270  1  0.71360000  0.81855000  0.04812000  1.0
  O  O271  1  0.40720000  0.85690000  0.03185000  1.0
  O  O272  1  0.61710000  0.27150000  0.01800000  1.0
  O  O273  1  0.30060000  0.23960000  0.62280000  1.0
  O  O274  1  0.58770000  0.22600000  0.66504000  1.0
  O  O275  1  0.05500000  0.80111000  0.50788000  1.0
  O  O276  1  0.32840000  0.82013000  0.55667000  1.0
  O  O277  1  0.28640000  0.68145000  0.54812000  1.0
  O  O278  1  0.59280000  0.64310000  0.53185000  1.0
  O  O279  1  0.38290000  0.22850000  0.51800000  1.0
