# generated using pymatgen
data_U3P4H8(CO)12
_symmetry_space_group_name_H-M   'P 1'
_cell_length_a   9.79320000
_cell_length_b   10.65920000
_cell_length_c   17.56430000
_cell_angle_alpha   83.84600000
_cell_angle_beta   86.31800000
_cell_angle_gamma   65.18400000
_symmetry_Int_Tables_number   1
_chemical_formula_structural   U3P4H8(CO)12
_chemical_formula_sum   'U6 P8 H16 C24 O24'
_cell_volume   1654.22629007
_cell_formula_units_Z   2
loop_
 _symmetry_equiv_pos_site_id
 _symmetry_equiv_pos_as_xyz
  1  'x, y, z'
loop_
 _atom_site_type_symbol
 _atom_site_label
 _atom_site_symmetry_multiplicity
 _atom_site_fract_x
 _atom_site_fract_y
 _atom_site_fract_z
 _atom_site_occupancy
  U  U0  1  0.94280000  0.18545000  0.75110000  1.0
  U  U1  1  0.31303000  0.28899000  0.74961000  1.0
  U  U2  1  0.62490000  0.73917000  0.75104000  1.0
  U  U3  1  0.05720000  0.81455000  0.24890000  1.0
  U  U4  1  0.68697000  0.71101000  0.25039000  1.0
  U  U5  1  0.37510000  0.26083000  0.24896000  1.0
  P  P6  1  0.68630000  0.02060000  0.81288000  1.0
  P  P7  1  0.00650000  0.50380000  0.68074000  1.0
  P  P8  1  0.75470000  0.02660000  0.17183000  1.0
  P  P9  1  0.57550000  0.45170000  0.67835000  1.0
  P  P10  1  0.31370000  0.97940000  0.18712000  1.0
  P  P11  1  0.99350000  0.49620000  0.31926000  1.0
  P  P12  1  0.24530000  0.97340000  0.82817000  1.0
  P  P13  1  0.42450000  0.54830000  0.32165000  1.0
  H  H14  1  0.49300000  0.16380000  0.93490000  1.0
  H  H15  1  0.92650000  0.90450000  0.91900000  1.0
  H  H16  1  0.88000000  0.70750000  0.55600000  1.0
  H  H17  1  0.12300000  0.28990000  0.57540000  1.0
  H  H18  1  0.94340000  0.89130000  0.04910000  1.0
  H  H19  1  0.51930000  0.16920000  0.06310000  1.0
  H  H20  1  0.31040000  0.51780000  0.59110000  1.0
  H  H21  1  0.74740000  0.43790000  0.53770000  1.0
  H  H22  1  0.50700000  0.83620000  0.06510000  1.0
  H  H23  1  0.07350000  0.09550000  0.08100000  1.0
  H  H24  1  0.12000000  0.29250000  0.44400000  1.0
  H  H25  1  0.87700000  0.71010000  0.42460000  1.0
  H  H26  1  0.05660000  0.10870000  0.95090000  1.0
  H  H27  1  0.48070000  0.83080000  0.93690000  1.0
  H  H28  1  0.68960000  0.48220000  0.40890000  1.0
  H  H29  1  0.25260000  0.56210000  0.46230000  1.0
  C  C30  1  0.58790000  0.10920000  0.95750000  1.0
  C  C31  1  0.70540000  0.03190000  0.91240000  1.0
  C  C32  1  0.83970000  0.95500000  0.94850000  1.0
  C  C33  1  0.92890000  0.62240000  0.53320000  1.0
  C  C34  1  0.99930000  0.49970000  0.58110000  1.0
  C  C35  1  0.07270000  0.37520000  0.54540000  1.0
  C  C36  1  0.85060000  0.95100000  0.02600000  1.0
  C  C37  1  0.73600000  0.02820000  0.07140000  1.0
  C  C38  1  0.60280000  0.11030000  0.03430000  1.0
  C  C39  1  0.38800000  0.51010000  0.55410000  1.0
  C  C40  1  0.53490000  0.47120000  0.57910000  1.0
  C  C41  1  0.64720000  0.46260000  0.52280000  1.0
  C  C42  1  0.41210000  0.89080000  0.04250000  1.0
  C  C43  1  0.29460000  0.96810000  0.08760000  1.0
  C  C44  1  0.16030000  0.04500000  0.05150000  1.0
  C  C45  1  0.07110000  0.37760000  0.46680000  1.0
  C  C46  1  0.00070000  0.50030000  0.41890000  1.0
  C  C47  1  0.92730000  0.62480000  0.45460000  1.0
  C  C48  1  0.14940000  0.04900000  0.97400000  1.0
  C  C49  1  0.26400000  0.97180000  0.92860000  1.0
  C  C50  1  0.39720000  0.88970000  0.96570000  1.0
  C  C51  1  0.61200000  0.48990000  0.44590000  1.0
  C  C52  1  0.46510000  0.52880000  0.42090000  1.0
  C  C53  1  0.35280000  0.53740000  0.47720000  1.0
  O  O54  1  0.79390000  0.06760000  0.76570000  1.0
  O  O55  1  0.72210000  0.86910000  0.80430000  1.0
  O  O56  1  0.52350000  0.11230000  0.79330000  1.0
  O  O57  1  0.03530000  0.35890000  0.72030000  1.0
  O  O58  1  0.14540000  0.52390000  0.69940000  1.0
  O  O59  1  0.86210000  0.61730000  0.70500000  1.0
  O  O60  1  0.78740000  0.87790000  0.20920000  1.0
  O  O61  1  0.89830000  0.04270000  0.18640000  1.0
  O  O62  1  0.61270000  0.13830000  0.20240000  1.0
  O  O63  1  0.74050000  0.35190000  0.68840000  1.0
  O  O64  1  0.47180000  0.39900000  0.72490000  1.0
  O  O65  1  0.54670000  0.59810000  0.69880000  1.0
  O  O66  1  0.20610000  0.93240000  0.23430000  1.0
  O  O67  1  0.27790000  0.13090000  0.19570000  1.0
  O  O68  1  0.47650000  0.88770000  0.20670000  1.0
  O  O69  1  0.96470000  0.64110000  0.27970000  1.0
  O  O70  1  0.85460000  0.47610000  0.30060000  1.0
  O  O71  1  0.13790000  0.38270000  0.29500000  1.0
  O  O72  1  0.21260000  0.12210000  0.79080000  1.0
  O  O73  1  0.10170000  0.95730000  0.81360000  1.0
  O  O74  1  0.38730000  0.86170000  0.79760000  1.0
  O  O75  1  0.25950000  0.64810000  0.31160000  1.0
  O  O76  1  0.52820000  0.60100000  0.27510000  1.0
  O  O77  1  0.45330000  0.40190000  0.30120000  1.0
