# generated using pymatgen
data_CrGa2CoP4H26C8(N3O8)2
_symmetry_space_group_name_H-M   'P 1'
_cell_length_a   23.74220000
_cell_length_b   23.74220000
_cell_length_c   13.48880000
_cell_angle_alpha   90.00000000
_cell_angle_beta   90.00000000
_cell_angle_gamma   120.00000000
_symmetry_Int_Tables_number   1
_chemical_formula_structural   CrGa2CoP4H26C8(N3O8)2
_chemical_formula_sum   'Cr9 Ga18 Co9 P36 H234 C72 N54 O144'
_cell_volume   6584.84967967
_cell_formula_units_Z   9
loop_
 _symmetry_equiv_pos_site_id
 _symmetry_equiv_pos_as_xyz
  1  'x, y, z'
loop_
 _atom_site_type_symbol
 _atom_site_label
 _atom_site_symmetry_multiplicity
 _atom_site_fract_x
 _atom_site_fract_y
 _atom_site_fract_z
 _atom_site_occupancy
  Cr  Cr0  1  0.34981000  0.24277000  0.91542000  1.0
  Cr  Cr1  1  0.01648000  0.57610000  0.24875000  1.0
  Cr  Cr2  1  0.68314000  0.90944000  0.58209000  1.0
  Cr  Cr3  1  0.75723000  0.10704000  0.91542000  1.0
  Cr  Cr4  1  0.42390000  0.44037000  0.24875000  1.0
  Cr  Cr5  1  0.09056000  0.77371000  0.58209000  1.0
  Cr  Cr6  1  0.89296000  0.65019000  0.91542000  1.0
  Cr  Cr7  1  0.55963000  0.98352000  0.24875000  1.0
  Cr  Cr8  1  0.22629000  0.31686000  0.58209000  1.0
  Ga  Ga9  1  0.30628000  0.24030000  0.21335000  1.0
  Ga  Ga10  1  0.24277000  0.89296000  0.08458000  1.0
  Ga  Ga11  1  0.97294000  0.57364000  0.54669000  1.0
  Ga  Ga12  1  0.90944000  0.22629000  0.41791000  1.0
  Ga  Ga13  1  0.63961000  0.90697000  0.88002000  1.0
  Ga  Ga14  1  0.57610000  0.55963000  0.75125000  1.0
  Ga  Ga15  1  0.75970000  0.06597000  0.21335000  1.0
  Ga  Ga16  1  0.10704000  0.34981000  0.08458000  1.0
  Ga  Ga17  1  0.42636000  0.39931000  0.54669000  1.0
  Ga  Ga18  1  0.77371000  0.68314000  0.41791000  1.0
  Ga  Ga19  1  0.09303000  0.73264000  0.88002000  1.0
  Ga  Ga20  1  0.44037000  0.01648000  0.75125000  1.0
  Ga  Ga21  1  0.93403000  0.69372000  0.21335000  1.0
  Ga  Ga22  1  0.65019000  0.75723000  0.08458000  1.0
  Ga  Ga23  1  0.60069000  0.02706000  0.54669000  1.0
  Ga  Ga24  1  0.31686000  0.09056000  0.41791000  1.0
  Ga  Ga25  1  0.26736000  0.36039000  0.88002000  1.0
  Ga  Ga26  1  0.98352000  0.42390000  0.75125000  1.0
  Co  Co27  1  0.36039000  0.09303000  0.11998000  1.0
  Co  Co28  1  0.02706000  0.42636000  0.45331000  1.0
  Co  Co29  1  0.69372000  0.75970000  0.78665000  1.0
  Co  Co30  1  0.90697000  0.26736000  0.11998000  1.0
  Co  Co31  1  0.57364000  0.60069000  0.45331000  1.0
  Co  Co32  1  0.24030000  0.93403000  0.78665000  1.0
  Co  Co33  1  0.73264000  0.63961000  0.11998000  1.0
  Co  Co34  1  0.39931000  0.97294000  0.45331000  1.0
  Co  Co35  1  0.06597000  0.30628000  0.78665000  1.0
  P  P36  1  0.41876000  0.23619000  0.11949000  1.0
  P  P37  1  0.32681000  0.98696000  0.27712000  1.0
  P  P38  1  0.08543000  0.56952000  0.45282000  1.0
  P  P39  1  0.99348000  0.32029000  0.61045000  1.0
  P  P40  1  0.75209000  0.90286000  0.78616000  1.0
  P  P41  1  0.66014000  0.65363000  0.94379000  1.0
  P  P42  1  0.76381000  0.18257000  0.11949000  1.0
  P  P43  1  0.01304000  0.33985000  0.27712000  1.0
  P  P44  1  0.43048000  0.51590000  0.45282000  1.0
  P  P45  1  0.67971000  0.67318000  0.61045000  1.0
  P  P46  1  0.09714000  0.84924000  0.78616000  1.0
  P  P47  1  0.34637000  0.00652000  0.94379000  1.0
  P  P48  1  0.81743000  0.58124000  0.11949000  1.0
  P  P49  1  0.66015000  0.67319000  0.27712000  1.0
  P  P50  1  0.48410000  0.91457000  0.45282000  1.0
  P  P51  1  0.32682000  0.00652000  0.61045000  1.0
  P  P52  1  0.15076000  0.24791000  0.78616000  1.0
  P  P53  1  0.99348000  0.33986000  0.94379000  1.0
  P  P54  1  0.58124000  0.76381000  0.88051000  1.0
  P  P55  1  0.67319000  0.01304000  0.72288000  1.0
  P  P56  1  0.24791000  0.09714000  0.21384000  1.0
  P  P57  1  0.33986000  0.34637000  0.05621000  1.0
  P  P58  1  0.91457000  0.43048000  0.54718000  1.0
  P  P59  1  0.00652000  0.67971000  0.38955000  1.0
  P  P60  1  0.23619000  0.81743000  0.88051000  1.0
  P  P61  1  0.98696000  0.66015000  0.72288000  1.0
  P  P62  1  0.90286000  0.15076000  0.21384000  1.0
  P  P63  1  0.65363000  0.99348000  0.05621000  1.0
  P  P64  1  0.56952000  0.48410000  0.54718000  1.0
  P  P65  1  0.32029000  0.32682000  0.38955000  1.0
  P  P66  1  0.18257000  0.41876000  0.88051000  1.0
  P  P67  1  0.33985000  0.32681000  0.72288000  1.0
  P  P68  1  0.84924000  0.75209000  0.21384000  1.0
  P  P69  1  0.00652000  0.66014000  0.05621000  1.0
  P  P70  1  0.51590000  0.08543000  0.54718000  1.0
  P  P71  1  0.67318000  0.99348000  0.38955000  1.0
  H  H72  1  0.45560000  0.30500000  0.82020000  1.0
  H  H73  1  0.47250000  0.29270000  0.92060000  1.0
  H  H74  1  0.32800000  0.12600000  0.89390000  1.0
  H  H75  1  0.23540000  0.21020000  0.91620000  1.0
  H  H76  1  0.23700000  0.18200000  0.00510000  1.0
  H  H77  1  0.45290000  0.19350000  0.88910000  1.0
  H  H78  1  0.48400000  0.23800000  0.78780000  1.0
  H  H79  1  0.37840000  0.19390000  0.72360000  1.0
  H  H80  1  0.38990000  0.13760000  0.74610000  1.0
  H  H81  1  0.25460000  0.14780000  0.76430000  1.0
  H  H82  1  0.25810000  0.08020000  0.79560000  1.0
  H  H83  1  0.18040000  0.10730000  0.87410000  1.0
  H  H84  1  0.22800000  0.09720000  0.96180000  1.0
  H  H85  1  0.12227000  0.63833000  0.15353000  1.0
  H  H86  1  0.13917000  0.62603000  0.25393000  1.0
  H  H87  1  0.99467000  0.45933000  0.22723000  1.0
  H  H88  1  0.90207000  0.54353000  0.24953000  1.0
  H  H89  1  0.90367000  0.51533000  0.33843000  1.0
  H  H90  1  0.11957000  0.52683000  0.22243000  1.0
  H  H91  1  0.15067000  0.57133000  0.12113000  1.0
  H  H92  1  0.04507000  0.52723000  0.05693000  1.0
  H  H93  1  0.05657000  0.47093000  0.07943000  1.0
  H  H94  1  0.92127000  0.48113000  0.09763000  1.0
  H  H95  1  0.92477000  0.41353000  0.12893000  1.0
  H  H96  1  0.84707000  0.44063000  0.20743000  1.0
  H  H97  1  0.89467000  0.43053000  0.29513000  1.0
  H  H98  1  0.78893000  0.97167000  0.48687000  1.0
  H  H99  1  0.80583000  0.95937000  0.58727000  1.0
  H  H100  1  0.66133000  0.79267000  0.56057000  1.0
  H  H101  1  0.56873000  0.87687000  0.58287000  1.0
  H  H102  1  0.57033000  0.84867000  0.67177000  1.0
  H  H103  1  0.78623000  0.86017000  0.55577000  1.0
  H  H104  1  0.81733000  0.90467000  0.45447000  1.0
  H  H105  1  0.71173000  0.86057000  0.39027000  1.0
  H  H106  1  0.72323000  0.80427000  0.41277000  1.0
  H  H107  1  0.58793000  0.81447000  0.43097000  1.0
  H  H108  1  0.59143000  0.74687000  0.46227000  1.0
  H  H109  1  0.51373000  0.77397000  0.54077000  1.0
  H  H110  1  0.56133000  0.76387000  0.62847000  1.0
  H  H111  1  0.69500000  0.15060000  0.82020000  1.0
  H  H112  1  0.70730000  0.17980000  0.92060000  1.0
  H  H113  1  0.87400000  0.20200000  0.89390000  1.0
  H  H114  1  0.78980000  0.02520000  0.91620000  1.0
  H  H115  1  0.81800000  0.05500000  0.00510000  1.0
  H  H116  1  0.80650000  0.25940000  0.88910000  1.0
  H  H117  1  0.76200000  0.24600000  0.78780000  1.0
  H  H118  1  0.80610000  0.18450000  0.72360000  1.0
  H  H119  1  0.86240000  0.25230000  0.74610000  1.0
  H  H120  1  0.85220000  0.10680000  0.76430000  1.0
  H  H121  1  0.91980000  0.17790000  0.79560000  1.0
  H  H122  1  0.89270000  0.07310000  0.87410000  1.0
  H  H123  1  0.90280000  0.13080000  0.96180000  1.0
  H  H124  1  0.36167000  0.48393000  0.15353000  1.0
  H  H125  1  0.37397000  0.51313000  0.25393000  1.0
  H  H126  1  0.54067000  0.53533000  0.22723000  1.0
  H  H127  1  0.45647000  0.35853000  0.24953000  1.0
  H  H128  1  0.48467000  0.38833000  0.33843000  1.0
  H  H129  1  0.47317000  0.59273000  0.22243000  1.0
  H  H130  1  0.42867000  0.57933000  0.12113000  1.0
  H  H131  1  0.47277000  0.51783000  0.05693000  1.0
  H  H132  1  0.52907000  0.58563000  0.07943000  1.0
  H  H133  1  0.51887000  0.44013000  0.09763000  1.0
  H  H134  1  0.58647000  0.51123000  0.12893000  1.0
  H  H135  1  0.55937000  0.40643000  0.20743000  1.0
  H  H136  1  0.56947000  0.46413000  0.29513000  1.0
  H  H137  1  0.02833000  0.81727000  0.48687000  1.0
  H  H138  1  0.04063000  0.84647000  0.58727000  1.0
  H  H139  1  0.20733000  0.86867000  0.56057000  1.0
  H  H140  1  0.12313000  0.69187000  0.58287000  1.0
  H  H141  1  0.15133000  0.72167000  0.67177000  1.0
  H  H142  1  0.13983000  0.92607000  0.55577000  1.0
  H  H143  1  0.09533000  0.91267000  0.45447000  1.0
  H  H144  1  0.13943000  0.85117000  0.39027000  1.0
  H  H145  1  0.19573000  0.91897000  0.41277000  1.0
  H  H146  1  0.18553000  0.77347000  0.43097000  1.0
  H  H147  1  0.25313000  0.84457000  0.46227000  1.0
  H  H148  1  0.22603000  0.73977000  0.54077000  1.0
  H  H149  1  0.23613000  0.79747000  0.62847000  1.0
  H  H150  1  0.84940000  0.54440000  0.82020000  1.0
  H  H151  1  0.82020000  0.52750000  0.92060000  1.0
  H  H152  1  0.79800000  0.67200000  0.89390000  1.0
  H  H153  1  0.97480000  0.76460000  0.91620000  1.0
  H  H154  1  0.94500000  0.76300000  0.00510000  1.0
  H  H155  1  0.74060000  0.54710000  0.88910000  1.0
  H  H156  1  0.75400000  0.51600000  0.78780000  1.0
  H  H157  1  0.81550000  0.62160000  0.72360000  1.0
  H  H158  1  0.74770000  0.61010000  0.74610000  1.0
  H  H159  1  0.89320000  0.74540000  0.76430000  1.0
  H  H160  1  0.82210000  0.74190000  0.79560000  1.0
  H  H161  1  0.92690000  0.81960000  0.87410000  1.0
  H  H162  1  0.86920000  0.77200000  0.96180000  1.0
  H  H163  1  0.51607000  0.87773000  0.15353000  1.0
  H  H164  1  0.48687000  0.86083000  0.25393000  1.0
  H  H165  1  0.46467000  0.00533000  0.22723000  1.0
  H  H166  1  0.64147000  0.09793000  0.24953000  1.0
  H  H167  1  0.61167000  0.09633000  0.33843000  1.0
  H  H168  1  0.40727000  0.88043000  0.22243000  1.0
  H  H169  1  0.42067000  0.84933000  0.12113000  1.0
  H  H170  1  0.48217000  0.95493000  0.05693000  1.0
  H  H171  1  0.41437000  0.94343000  0.07943000  1.0
  H  H172  1  0.55987000  0.07873000  0.09763000  1.0
  H  H173  1  0.48877000  0.07523000  0.12893000  1.0
  H  H174  1  0.59357000  0.15293000  0.20743000  1.0
  H  H175  1  0.53587000  0.10533000  0.29513000  1.0
  H  H176  1  0.18273000  0.21107000  0.48687000  1.0
  H  H177  1  0.15353000  0.19417000  0.58727000  1.0
  H  H178  1  0.13133000  0.33867000  0.56057000  1.0
  H  H179  1  0.30813000  0.43127000  0.58287000  1.0
  H  H180  1  0.27833000  0.42967000  0.67177000  1.0
  H  H181  1  0.07393000  0.21377000  0.55577000  1.0
  H  H182  1  0.08733000  0.18267000  0.45447000  1.0
  H  H183  1  0.14883000  0.28827000  0.39027000  1.0
  H  H184  1  0.08103000  0.27677000  0.41277000  1.0
  H  H185  1  0.22653000  0.41207000  0.43097000  1.0
  H  H186  1  0.15543000  0.40857000  0.46227000  1.0
  H  H187  1  0.26023000  0.48627000  0.54077000  1.0
  H  H188  1  0.20253000  0.43867000  0.62847000  1.0
  H  H189  1  0.54440000  0.69500000  0.17980000  1.0
  H  H190  1  0.52750000  0.70730000  0.07940000  1.0
  H  H191  1  0.67200000  0.87400000  0.10610000  1.0
  H  H192  1  0.76460000  0.78980000  0.08380000  1.0
  H  H193  1  0.76300000  0.81800000  0.99490000  1.0
  H  H194  1  0.54710000  0.80650000  0.11090000  1.0
  H  H195  1  0.51600000  0.76200000  0.21220000  1.0
  H  H196  1  0.62160000  0.80610000  0.27640000  1.0
  H  H197  1  0.61010000  0.86240000  0.25390000  1.0
  H  H198  1  0.74540000  0.85220000  0.23570000  1.0
  H  H199  1  0.74190000  0.91980000  0.20440000  1.0
  H  H200  1  0.81960000  0.89270000  0.12590000  1.0
  H  H201  1  0.77200000  0.90280000  0.03820000  1.0
  H  H202  1  0.21107000  0.02833000  0.51313000  1.0
  H  H203  1  0.19417000  0.04063000  0.41273000  1.0
  H  H204  1  0.33867000  0.20733000  0.43943000  1.0
  H  H205  1  0.43127000  0.12313000  0.41713000  1.0
  H  H206  1  0.42967000  0.15133000  0.32823000  1.0
  H  H207  1  0.21377000  0.13983000  0.44423000  1.0
  H  H208  1  0.18267000  0.09533000  0.54553000  1.0
  H  H209  1  0.28827000  0.13943000  0.60973000  1.0
  H  H210  1  0.27677000  0.19573000  0.58723000  1.0
  H  H211  1  0.41207000  0.18553000  0.56903000  1.0
  H  H212  1  0.40857000  0.25313000  0.53773000  1.0
  H  H213  1  0.48627000  0.22603000  0.45923000  1.0
  H  H214  1  0.43867000  0.23613000  0.37153000  1.0
  H  H215  1  0.87773000  0.36167000  0.84647000  1.0
  H  H216  1  0.86083000  0.37397000  0.74607000  1.0
  H  H217  1  0.00533000  0.54067000  0.77277000  1.0
  H  H218  1  0.09793000  0.45647000  0.75047000  1.0
  H  H219  1  0.09633000  0.48467000  0.66157000  1.0
  H  H220  1  0.88043000  0.47317000  0.77757000  1.0
  H  H221  1  0.84933000  0.42867000  0.87887000  1.0
  H  H222  1  0.95493000  0.47277000  0.94307000  1.0
  H  H223  1  0.94343000  0.52907000  0.92057000  1.0
  H  H224  1  0.07873000  0.51887000  0.90237000  1.0
  H  H225  1  0.07523000  0.58647000  0.87107000  1.0
  H  H226  1  0.15293000  0.55937000  0.79257000  1.0
  H  H227  1  0.10533000  0.56947000  0.70487000  1.0
  H  H228  1  0.30500000  0.84940000  0.17980000  1.0
  H  H229  1  0.29270000  0.82020000  0.07940000  1.0
  H  H230  1  0.12600000  0.79800000  0.10610000  1.0
  H  H231  1  0.21020000  0.97480000  0.08380000  1.0
  H  H232  1  0.18200000  0.94500000  0.99490000  1.0
  H  H233  1  0.19350000  0.74060000  0.11090000  1.0
  H  H234  1  0.23800000  0.75400000  0.21220000  1.0
  H  H235  1  0.19390000  0.81550000  0.27640000  1.0
  H  H236  1  0.13760000  0.74770000  0.25390000  1.0
  H  H237  1  0.14780000  0.89320000  0.23570000  1.0
  H  H238  1  0.08020000  0.82210000  0.20440000  1.0
  H  H239  1  0.10730000  0.92690000  0.12590000  1.0
  H  H240  1  0.09720000  0.86920000  0.03820000  1.0
  H  H241  1  0.97167000  0.18273000  0.51313000  1.0
  H  H242  1  0.95937000  0.15353000  0.41273000  1.0
  H  H243  1  0.79267000  0.13133000  0.43943000  1.0
  H  H244  1  0.87687000  0.30813000  0.41713000  1.0
  H  H245  1  0.84867000  0.27833000  0.32823000  1.0
  H  H246  1  0.86017000  0.07393000  0.44423000  1.0
  H  H247  1  0.90467000  0.08733000  0.54553000  1.0
  H  H248  1  0.86057000  0.14883000  0.60973000  1.0
  H  H249  1  0.80427000  0.08103000  0.58723000  1.0
  H  H250  1  0.81447000  0.22653000  0.56903000  1.0
  H  H251  1  0.74687000  0.15543000  0.53773000  1.0
  H  H252  1  0.77397000  0.26023000  0.45923000  1.0
  H  H253  1  0.76387000  0.20253000  0.37153000  1.0
  H  H254  1  0.63833000  0.51607000  0.84647000  1.0
  H  H255  1  0.62603000  0.48687000  0.74607000  1.0
  H  H256  1  0.45933000  0.46467000  0.77277000  1.0
  H  H257  1  0.54353000  0.64147000  0.75047000  1.0
  H  H258  1  0.51533000  0.61167000  0.66157000  1.0
  H  H259  1  0.52683000  0.40727000  0.77757000  1.0
  H  H260  1  0.57133000  0.42067000  0.87887000  1.0
  H  H261  1  0.52723000  0.48217000  0.94307000  1.0
  H  H262  1  0.47093000  0.41437000  0.92057000  1.0
  H  H263  1  0.48113000  0.55987000  0.90237000  1.0
  H  H264  1  0.41353000  0.48877000  0.87107000  1.0
  H  H265  1  0.44063000  0.59357000  0.79257000  1.0
  H  H266  1  0.43053000  0.53587000  0.70487000  1.0
  H  H267  1  0.15060000  0.45560000  0.17980000  1.0
  H  H268  1  0.17980000  0.47250000  0.07940000  1.0
  H  H269  1  0.20200000  0.32800000  0.10610000  1.0
  H  H270  1  0.02520000  0.23540000  0.08380000  1.0
  H  H271  1  0.05500000  0.23700000  0.99490000  1.0
  H  H272  1  0.25940000  0.45290000  0.11090000  1.0
  H  H273  1  0.24600000  0.48400000  0.21220000  1.0
  H  H274  1  0.18450000  0.37840000  0.27640000  1.0
  H  H275  1  0.25230000  0.38990000  0.25390000  1.0
  H  H276  1  0.10680000  0.25460000  0.23570000  1.0
  H  H277  1  0.17790000  0.25810000  0.20440000  1.0
  H  H278  1  0.07310000  0.18040000  0.12590000  1.0
  H  H279  1  0.13080000  0.22800000  0.03820000  1.0
  H  H280  1  0.81727000  0.78893000  0.51313000  1.0
  H  H281  1  0.84647000  0.80583000  0.41273000  1.0
  H  H282  1  0.86867000  0.66133000  0.43943000  1.0
  H  H283  1  0.69187000  0.56873000  0.41713000  1.0
  H  H284  1  0.72167000  0.57033000  0.32823000  1.0
  H  H285  1  0.92607000  0.78623000  0.44423000  1.0
  H  H286  1  0.91267000  0.81733000  0.54553000  1.0
  H  H287  1  0.85117000  0.71173000  0.60973000  1.0
  H  H288  1  0.91897000  0.72323000  0.58723000  1.0
  H  H289  1  0.77347000  0.58793000  0.56903000  1.0
  H  H290  1  0.84457000  0.59143000  0.53773000  1.0
  H  H291  1  0.73977000  0.51373000  0.45923000  1.0
  H  H292  1  0.79747000  0.56133000  0.37153000  1.0
  H  H293  1  0.48393000  0.12227000  0.84647000  1.0
  H  H294  1  0.51313000  0.13917000  0.74607000  1.0
  H  H295  1  0.53533000  0.99467000  0.77277000  1.0
  H  H296  1  0.35853000  0.90207000  0.75047000  1.0
  H  H297  1  0.38833000  0.90367000  0.66157000  1.0
  H  H298  1  0.59273000  0.11957000  0.77757000  1.0
  H  H299  1  0.57933000  0.15067000  0.87887000  1.0
  H  H300  1  0.51783000  0.04507000  0.94307000  1.0
  H  H301  1  0.58563000  0.05657000  0.92057000  1.0
  H  H302  1  0.44013000  0.92127000  0.90237000  1.0
  H  H303  1  0.51123000  0.92477000  0.87107000  1.0
  H  H304  1  0.40643000  0.84707000  0.79257000  1.0
  H  H305  1  0.46413000  0.89467000  0.70487000  1.0
  C  C306  1  0.44730000  0.21820000  0.83040000  1.0
  C  C307  1  0.38500000  0.17300000  0.77980000  1.0
  C  C308  1  0.26480000  0.12230000  0.81690000  1.0
  C  C309  1  0.22370000  0.12100000  0.90370000  1.0
  C  C310  1  0.11397000  0.55153000  0.16373000  1.0
  C  C311  1  0.05167000  0.50633000  0.11313000  1.0
  C  C312  1  0.93147000  0.45563000  0.15023000  1.0
  C  C313  1  0.89037000  0.45433000  0.23703000  1.0
  C  C314  1  0.78063000  0.88487000  0.49707000  1.0
  C  C315  1  0.71833000  0.83967000  0.44647000  1.0
  C  C316  1  0.59813000  0.78897000  0.48357000  1.0
  C  C317  1  0.55703000  0.78767000  0.57037000  1.0
  C  C318  1  0.78180000  0.22910000  0.83040000  1.0
  C  C319  1  0.82700000  0.21200000  0.77980000  1.0
  C  C320  1  0.87770000  0.14250000  0.81690000  1.0
  C  C321  1  0.87900000  0.10270000  0.90370000  1.0
  C  C322  1  0.44847000  0.56243000  0.16373000  1.0
  C  C323  1  0.49367000  0.54533000  0.11313000  1.0
  C  C324  1  0.54437000  0.47583000  0.15023000  1.0
  C  C325  1  0.54567000  0.43603000  0.23703000  1.0
  C  C326  1  0.11513000  0.89577000  0.49707000  1.0
  C  C327  1  0.16033000  0.87867000  0.44647000  1.0
  C  C328  1  0.21103000  0.80917000  0.48357000  1.0
  C  C329  1  0.21233000  0.76937000  0.57037000  1.0
  C  C330  1  0.77090000  0.55270000  0.83040000  1.0
  C  C331  1  0.78800000  0.61500000  0.77980000  1.0
  C  C332  1  0.85750000  0.73520000  0.81690000  1.0
  C  C333  1  0.89730000  0.77630000  0.90370000  1.0
  C  C334  1  0.43757000  0.88603000  0.16373000  1.0
  C  C335  1  0.45467000  0.94833000  0.11313000  1.0
  C  C336  1  0.52417000  0.06853000  0.15023000  1.0
  C  C337  1  0.56397000  0.10963000  0.23703000  1.0
  C  C338  1  0.10423000  0.21937000  0.49707000  1.0
  C  C339  1  0.12133000  0.28167000  0.44647000  1.0
  C  C340  1  0.19083000  0.40187000  0.48357000  1.0
  C  C341  1  0.23063000  0.44297000  0.57037000  1.0
  C  C342  1  0.55270000  0.78180000  0.16960000  1.0
  C  C343  1  0.61500000  0.82700000  0.22020000  1.0
  C  C344  1  0.73520000  0.87770000  0.18310000  1.0
  C  C345  1  0.77630000  0.87900000  0.09630000  1.0
  C  C346  1  0.21937000  0.11513000  0.50293000  1.0
  C  C347  1  0.28167000  0.16033000  0.55353000  1.0
  C  C348  1  0.40187000  0.21103000  0.51643000  1.0
  C  C349  1  0.44297000  0.21233000  0.42963000  1.0
  C  C350  1  0.88603000  0.44847000  0.83627000  1.0
  C  C351  1  0.94833000  0.49367000  0.88687000  1.0
  C  C352  1  0.06853000  0.54437000  0.84977000  1.0
  C  C353  1  0.10963000  0.54567000  0.76297000  1.0
  C  C354  1  0.21820000  0.77090000  0.16960000  1.0
  C  C355  1  0.17300000  0.78800000  0.22020000  1.0
  C  C356  1  0.12230000  0.85750000  0.18310000  1.0
  C  C357  1  0.12100000  0.89730000  0.09630000  1.0
  C  C358  1  0.88487000  0.10423000  0.50293000  1.0
  C  C359  1  0.83967000  0.12133000  0.55353000  1.0
  C  C360  1  0.78897000  0.19083000  0.51643000  1.0
  C  C361  1  0.78767000  0.23063000  0.42963000  1.0
  C  C362  1  0.55153000  0.43757000  0.83627000  1.0
  C  C363  1  0.50633000  0.45467000  0.88687000  1.0
  C  C364  1  0.45563000  0.52417000  0.84977000  1.0
  C  C365  1  0.45433000  0.56397000  0.76297000  1.0
  C  C366  1  0.22910000  0.44730000  0.16960000  1.0
  C  C367  1  0.21200000  0.38500000  0.22020000  1.0
  C  C368  1  0.14250000  0.26480000  0.18310000  1.0
  C  C369  1  0.10270000  0.22370000  0.09630000  1.0
  C  C370  1  0.89577000  0.78063000  0.50293000  1.0
  C  C371  1  0.87867000  0.71833000  0.55353000  1.0
  C  C372  1  0.80917000  0.59813000  0.51643000  1.0
  C  C373  1  0.76937000  0.55703000  0.42963000  1.0
  C  C374  1  0.56243000  0.11397000  0.83627000  1.0
  C  C375  1  0.54533000  0.05167000  0.88687000  1.0
  C  C376  1  0.47583000  0.93147000  0.84977000  1.0
  C  C377  1  0.43603000  0.89037000  0.76297000  1.0
  N  N378  1  0.44440000  0.27551000  0.86930000  1.0
  N  N379  1  0.33260000  0.15656000  0.85110000  1.0
  N  N380  1  0.25082000  0.18856000  0.94130000  1.0
  N  N381  1  0.11107000  0.60884000  0.20263000  1.0
  N  N382  1  0.99927000  0.48989000  0.18443000  1.0
  N  N383  1  0.91749000  0.52189000  0.27463000  1.0
  N  N384  1  0.77773000  0.94218000  0.53597000  1.0
  N  N385  1  0.66593000  0.82323000  0.51777000  1.0
  N  N386  1  0.58415000  0.85523000  0.60797000  1.0
  N  N387  1  0.72449000  0.16889000  0.86930000  1.0
  N  N388  1  0.84344000  0.17604000  0.85110000  1.0
  N  N389  1  0.81144000  0.06226000  0.94130000  1.0
  N  N390  1  0.39116000  0.50222000  0.20263000  1.0
  N  N391  1  0.51011000  0.50937000  0.18443000  1.0
  N  N392  1  0.47811000  0.39559000  0.27463000  1.0
  N  N393  1  0.05782000  0.83556000  0.53597000  1.0
  N  N394  1  0.17677000  0.84271000  0.51777000  1.0
  N  N395  1  0.14477000  0.72893000  0.60797000  1.0
  N  N396  1  0.83111000  0.55560000  0.86930000  1.0
  N  N397  1  0.82396000  0.66740000  0.85110000  1.0
  N  N398  1  0.93774000  0.74918000  0.94130000  1.0
  N  N399  1  0.49778000  0.88893000  0.20263000  1.0
  N  N400  1  0.49063000  0.00073000  0.18443000  1.0
  N  N401  1  0.60441000  0.08251000  0.27463000  1.0
  N  N402  1  0.16444000  0.22227000  0.53597000  1.0
  N  N403  1  0.15729000  0.33407000  0.51777000  1.0
  N  N404  1  0.27107000  0.41585000  0.60797000  1.0
  N  N405  1  0.55560000  0.72449000  0.13070000  1.0
  N  N406  1  0.66740000  0.84344000  0.14890000  1.0
  N  N407  1  0.74918000  0.81144000  0.05870000  1.0
  N  N408  1  0.22227000  0.05782000  0.46403000  1.0
  N  N409  1  0.33407000  0.17677000  0.48223000  1.0
  N  N410  1  0.41585000  0.14477000  0.39203000  1.0
  N  N411  1  0.88893000  0.39116000  0.79737000  1.0
  N  N412  1  0.00073000  0.51011000  0.81557000  1.0
  N  N413  1  0.08251000  0.47811000  0.72537000  1.0
  N  N414  1  0.27551000  0.83111000  0.13070000  1.0
  N  N415  1  0.15656000  0.82396000  0.14890000  1.0
  N  N416  1  0.18856000  0.93774000  0.05870000  1.0
  N  N417  1  0.94218000  0.16444000  0.46403000  1.0
  N  N418  1  0.82323000  0.15729000  0.48223000  1.0
  N  N419  1  0.85523000  0.27107000  0.39203000  1.0
  N  N420  1  0.60884000  0.49778000  0.79737000  1.0
  N  N421  1  0.48989000  0.49063000  0.81557000  1.0
  N  N422  1  0.52189000  0.60441000  0.72537000  1.0
  N  N423  1  0.16889000  0.44440000  0.13070000  1.0
  N  N424  1  0.17604000  0.33260000  0.14890000  1.0
  N  N425  1  0.06226000  0.25082000  0.05870000  1.0
  N  N426  1  0.83556000  0.77773000  0.46403000  1.0
  N  N427  1  0.84271000  0.66593000  0.48223000  1.0
  N  N428  1  0.72893000  0.58415000  0.39203000  1.0
  N  N429  1  0.50222000  0.11107000  0.79737000  1.0
  N  N430  1  0.50937000  0.99927000  0.81557000  1.0
  N  N431  1  0.39559000  0.91749000  0.72537000  1.0
  O  O432  1  0.36719000  0.21018000  0.03740000  1.0
  O  O433  1  0.42234000  0.17578000  0.15640000  1.0
  O  O434  1  0.39150000  0.25946000  0.20650000  1.0
  O  O435  1  0.48414000  0.28969000  0.08930000  1.0
  O  O436  1  0.37531000  0.04450000  0.21160000  1.0
  O  O437  1  0.36705000  0.95863000  0.32500000  1.0
  O  O438  1  0.27152000  0.93516000  0.21730000  1.0
  O  O439  1  0.30027000  0.01060000  0.36000000  1.0
  O  O440  1  0.03386000  0.54351000  0.37073000  1.0
  O  O441  1  0.08901000  0.50911000  0.48973000  1.0
  O  O442  1  0.05817000  0.59279000  0.53983000  1.0
  O  O443  1  0.15081000  0.62302000  0.42263000  1.0
  O  O444  1  0.04198000  0.37783000  0.54493000  1.0
  O  O445  1  0.03372000  0.29196000  0.65833000  1.0
  O  O446  1  0.93819000  0.26849000  0.55063000  1.0
  O  O447  1  0.96694000  0.34393000  0.69333000  1.0
  O  O448  1  0.70052000  0.87685000  0.70407000  1.0
  O  O449  1  0.75567000  0.84245000  0.82307000  1.0
  O  O450  1  0.72483000  0.92613000  0.87317000  1.0
  O  O451  1  0.81747000  0.95636000  0.75597000  1.0
  O  O452  1  0.70864000  0.71117000  0.87827000  1.0
  O  O453  1  0.70038000  0.62530000  0.99167000  1.0
  O  O454  1  0.60485000  0.60183000  0.88397000  1.0
  O  O455  1  0.63360000  0.67727000  0.02667000  1.0
  O  O456  1  0.78982000  0.15701000  0.03740000  1.0
  O  O457  1  0.82422000  0.24656000  0.15640000  1.0
  O  O458  1  0.74054000  0.13204000  0.20650000  1.0
  O  O459  1  0.71031000  0.19445000  0.08930000  1.0
  O  O460  1  0.95550000  0.33081000  0.21160000  1.0
  O  O461  1  0.04137000  0.40842000  0.32500000  1.0
  O  O462  1  0.06484000  0.33636000  0.21730000  1.0
  O  O463  1  0.98940000  0.28967000  0.36000000  1.0
  O  O464  1  0.45649000  0.49034000  0.37073000  1.0
  O  O465  1  0.49089000  0.57989000  0.48973000  1.0
  O  O466  1  0.40721000  0.46537000  0.53983000  1.0
  O  O467  1  0.37698000  0.52778000  0.42263000  1.0
  O  O468  1  0.62217000  0.66414000  0.54493000  1.0
  O  O469  1  0.70804000  0.74175000  0.65833000  1.0
  O  O470  1  0.73151000  0.66969000  0.55063000  1.0
  O  O471  1  0.65607000  0.62300000  0.69333000  1.0
  O  O472  1  0.12315000  0.82368000  0.70407000  1.0
  O  O473  1  0.15755000  0.91323000  0.82307000  1.0
  O  O474  1  0.07387000  0.79871000  0.87317000  1.0
  O  O475  1  0.04364000  0.86112000  0.75597000  1.0
  O  O476  1  0.28883000  0.99748000  0.87827000  1.0
  O  O477  1  0.37470000  0.07509000  0.99167000  1.0
  O  O478  1  0.39817000  0.00303000  0.88397000  1.0
  O  O479  1  0.32273000  0.95634000  0.02667000  1.0
  O  O480  1  0.84299000  0.63281000  0.03740000  1.0
  O  O481  1  0.75344000  0.57766000  0.15640000  1.0
  O  O482  1  0.86796000  0.60850000  0.20650000  1.0
  O  O483  1  0.80555000  0.51586000  0.08930000  1.0
  O  O484  1  0.66919000  0.62469000  0.21160000  1.0
  O  O485  1  0.59158000  0.63295000  0.32500000  1.0
  O  O486  1  0.66364000  0.72848000  0.21730000  1.0
  O  O487  1  0.71033000  0.69973000  0.36000000  1.0
  O  O488  1  0.50966000  0.96614000  0.37073000  1.0
  O  O489  1  0.42011000  0.91099000  0.48973000  1.0
  O  O490  1  0.53463000  0.94183000  0.53983000  1.0
  O  O491  1  0.47222000  0.84919000  0.42263000  1.0
  O  O492  1  0.33586000  0.95802000  0.54493000  1.0
  O  O493  1  0.25825000  0.96628000  0.65833000  1.0
  O  O494  1  0.33031000  0.06181000  0.55063000  1.0
  O  O495  1  0.37700000  0.03306000  0.69333000  1.0
  O  O496  1  0.17632000  0.29948000  0.70407000  1.0
  O  O497  1  0.08677000  0.24433000  0.82307000  1.0
  O  O498  1  0.20129000  0.27517000  0.87317000  1.0
  O  O499  1  0.13888000  0.18253000  0.75597000  1.0
  O  O500  1  0.00252000  0.29136000  0.87827000  1.0
  O  O501  1  0.92491000  0.29962000  0.99167000  1.0
  O  O502  1  0.99697000  0.39515000  0.88397000  1.0
  O  O503  1  0.04366000  0.36640000  0.02667000  1.0
  O  O504  1  0.63281000  0.78982000  0.96260000  1.0
  O  O505  1  0.57766000  0.82422000  0.84360000  1.0
  O  O506  1  0.60850000  0.74054000  0.79350000  1.0
  O  O507  1  0.51586000  0.71031000  0.91070000  1.0
  O  O508  1  0.62469000  0.95550000  0.78840000  1.0
  O  O509  1  0.63295000  0.04137000  0.67500000  1.0
  O  O510  1  0.72848000  0.06484000  0.78270000  1.0
  O  O511  1  0.69973000  0.98940000  0.64000000  1.0
  O  O512  1  0.29948000  0.12315000  0.29593000  1.0
  O  O513  1  0.24433000  0.15755000  0.17693000  1.0
  O  O514  1  0.27517000  0.07387000  0.12683000  1.0
  O  O515  1  0.18253000  0.04364000  0.24403000  1.0
  O  O516  1  0.29136000  0.28883000  0.12173000  1.0
  O  O517  1  0.29962000  0.37470000  0.00833000  1.0
  O  O518  1  0.39515000  0.39817000  0.11603000  1.0
  O  O519  1  0.36640000  0.32273000  0.97333000  1.0
  O  O520  1  0.96614000  0.45649000  0.62927000  1.0
  O  O521  1  0.91099000  0.49089000  0.51027000  1.0
  O  O522  1  0.94183000  0.40721000  0.46017000  1.0
  O  O523  1  0.84919000  0.37698000  0.57737000  1.0
  O  O524  1  0.95802000  0.62217000  0.45507000  1.0
  O  O525  1  0.96628000  0.70804000  0.34167000  1.0
  O  O526  1  0.06181000  0.73151000  0.44937000  1.0
  O  O527  1  0.03306000  0.65607000  0.30667000  1.0
  O  O528  1  0.21018000  0.84299000  0.96260000  1.0
  O  O529  1  0.17578000  0.75344000  0.84360000  1.0
  O  O530  1  0.25946000  0.86796000  0.79350000  1.0
  O  O531  1  0.28969000  0.80555000  0.91070000  1.0
  O  O532  1  0.04450000  0.66919000  0.78840000  1.0
  O  O533  1  0.95863000  0.59158000  0.67500000  1.0
  O  O534  1  0.93516000  0.66364000  0.78270000  1.0
  O  O535  1  0.01060000  0.71033000  0.64000000  1.0
  O  O536  1  0.87685000  0.17632000  0.29593000  1.0
  O  O537  1  0.84245000  0.08677000  0.17693000  1.0
  O  O538  1  0.92613000  0.20129000  0.12683000  1.0
  O  O539  1  0.95636000  0.13888000  0.24403000  1.0
  O  O540  1  0.71117000  0.00252000  0.12173000  1.0
  O  O541  1  0.62530000  0.92491000  0.00833000  1.0
  O  O542  1  0.60183000  0.99697000  0.11603000  1.0
  O  O543  1  0.67727000  0.04366000  0.97333000  1.0
  O  O544  1  0.54351000  0.50966000  0.62927000  1.0
  O  O545  1  0.50911000  0.42011000  0.51027000  1.0
  O  O546  1  0.59279000  0.53463000  0.46017000  1.0
  O  O547  1  0.62302000  0.47222000  0.57737000  1.0
  O  O548  1  0.37783000  0.33586000  0.45507000  1.0
  O  O549  1  0.29196000  0.25825000  0.34167000  1.0
  O  O550  1  0.26849000  0.33031000  0.44937000  1.0
  O  O551  1  0.34393000  0.37700000  0.30667000  1.0
  O  O552  1  0.15701000  0.36719000  0.96260000  1.0
  O  O553  1  0.24656000  0.42234000  0.84360000  1.0
  O  O554  1  0.13204000  0.39150000  0.79350000  1.0
  O  O555  1  0.19445000  0.48414000  0.91070000  1.0
  O  O556  1  0.33081000  0.37531000  0.78840000  1.0
  O  O557  1  0.40842000  0.36705000  0.67500000  1.0
  O  O558  1  0.33636000  0.27152000  0.78270000  1.0
  O  O559  1  0.28967000  0.30027000  0.64000000  1.0
  O  O560  1  0.82368000  0.70052000  0.29593000  1.0
  O  O561  1  0.91323000  0.75567000  0.17693000  1.0
  O  O562  1  0.79871000  0.72483000  0.12683000  1.0
  O  O563  1  0.86112000  0.81747000  0.24403000  1.0
  O  O564  1  0.99748000  0.70864000  0.12173000  1.0
  O  O565  1  0.07509000  0.70038000  0.00833000  1.0
  O  O566  1  0.00303000  0.60485000  0.11603000  1.0
  O  O567  1  0.95634000  0.63360000  0.97333000  1.0
  O  O568  1  0.49034000  0.03386000  0.62927000  1.0
  O  O569  1  0.57989000  0.08901000  0.51027000  1.0
  O  O570  1  0.46537000  0.05817000  0.46017000  1.0
  O  O571  1  0.52778000  0.15081000  0.57737000  1.0
  O  O572  1  0.66414000  0.04198000  0.45507000  1.0
  O  O573  1  0.74175000  0.03372000  0.34167000  1.0
  O  O574  1  0.66969000  0.93819000  0.44937000  1.0
  O  O575  1  0.62300000  0.96694000  0.30667000  1.0
