# generated using pymatgen
data_VH5C8O5
_symmetry_space_group_name_H-M   'P 1'
_cell_length_a   12.60110000
_cell_length_b   13.73640000
_cell_length_c   17.28740000
_cell_angle_alpha   90.00000000
_cell_angle_beta   90.00000000
_cell_angle_gamma   90.00000000
_symmetry_Int_Tables_number   1
_chemical_formula_structural   VH5C8O5
_chemical_formula_sum   'V8 H40 C64 O40'
_cell_volume   2992.34089444
_cell_formula_units_Z   8
loop_
 _symmetry_equiv_pos_site_id
 _symmetry_equiv_pos_as_xyz
  1  'x, y, z'
loop_
 _atom_site_type_symbol
 _atom_site_label
 _atom_site_symmetry_multiplicity
 _atom_site_fract_x
 _atom_site_fract_y
 _atom_site_fract_z
 _atom_site_occupancy
  V  V0  1  0.75024000  0.12483000  0.75061000  1.0
  V  V1  1  0.24976000  0.12483000  0.25061000  1.0
  V  V2  1  0.75024000  0.37517000  0.75061000  1.0
  V  V3  1  0.75024000  0.87517000  0.74939000  1.0
  V  V4  1  0.75024000  0.62483000  0.74939000  1.0
  V  V5  1  0.24976000  0.62483000  0.24939000  1.0
  V  V6  1  0.24976000  0.87517000  0.24939000  1.0
  V  V7  1  0.24976000  0.37517000  0.25061000  1.0
  H  H8  1  0.06850000  0.10370000  0.45450000  1.0
  H  H9  1  0.55310000  0.85360000  0.94690000  1.0
  H  H10  1  0.54760000  0.64480000  0.55840000  1.0
  H  H11  1  0.55310000  0.14640000  0.55310000  1.0
  H  H12  1  0.44690000  0.35360000  0.05310000  1.0
  H  H13  1  0.96810000  0.10430000  0.56670000  1.0
  H  H14  1  0.44690000  0.85360000  0.44690000  1.0
  H  H15  1  0.03190000  0.60430000  0.43330000  1.0
  H  H16  1  0.11160000  0.50000000  0.25000000  1.0
  H  H17  1  0.44690000  0.14640000  0.05310000  1.0
  H  H18  1  0.06850000  0.89630000  0.04550000  1.0
  H  H19  1  0.06850000  0.60370000  0.04550000  1.0
  H  H20  1  0.38600000  0.75000000  0.26800000  1.0
  H  H21  1  0.55310000  0.35360000  0.55310000  1.0
  H  H22  1  0.96810000  0.60430000  0.93330000  1.0
  H  H23  1  0.06850000  0.39630000  0.45450000  1.0
  H  H24  1  0.88840000  0.50000000  0.75000000  1.0
  H  H25  1  0.54760000  0.85520000  0.55840000  1.0
  H  H26  1  0.96810000  0.89570000  0.93330000  1.0
  H  H27  1  0.93150000  0.89630000  0.54550000  1.0
  H  H28  1  0.03190000  0.39570000  0.06670000  1.0
  H  H29  1  0.45240000  0.64480000  0.05840000  1.0
  H  H30  1  0.38600000  0.25000000  0.23200000  1.0
  H  H31  1  0.61400000  0.25000000  0.73200000  1.0
  H  H32  1  0.93150000  0.39630000  0.95450000  1.0
  H  H33  1  0.45240000  0.14480000  0.44160000  1.0
  H  H34  1  0.54760000  0.35520000  0.94160000  1.0
  H  H35  1  0.44690000  0.64640000  0.44690000  1.0
  H  H36  1  0.03190000  0.89570000  0.43330000  1.0
  H  H37  1  0.93150000  0.60370000  0.54550000  1.0
  H  H38  1  0.88840000  0.00000000  0.75000000  1.0
  H  H39  1  0.96810000  0.39570000  0.56670000  1.0
  H  H40  1  0.11160000  0.00000000  0.25000000  1.0
  H  H41  1  0.61400000  0.75000000  0.76800000  1.0
  H  H42  1  0.54760000  0.14480000  0.94160000  1.0
  H  H43  1  0.45240000  0.85520000  0.05840000  1.0
  H  H44  1  0.45240000  0.35520000  0.44160000  1.0
  H  H45  1  0.93150000  0.10370000  0.95450000  1.0
  H  H46  1  0.03190000  0.10430000  0.06670000  1.0
  H  H47  1  0.55310000  0.64640000  0.94690000  1.0
  C  C48  1  0.92400000  0.75000000  0.55780000  1.0
  C  C49  1  0.07600000  0.75000000  0.05780000  1.0
  C  C50  1  0.46850000  0.91250000  0.46816000  1.0
  C  C51  1  0.55950000  0.99931000  0.93275000  1.0
  C  C52  1  0.47170000  0.58650000  0.03500000  1.0
  C  C53  1  0.95250000  0.83760000  0.52343000  1.0
  C  C54  1  0.47170000  0.08650000  0.46500000  1.0
  C  C55  1  0.44050000  0.50069000  0.43275000  1.0
  C  C56  1  0.86350000  0.75000000  0.63210000  1.0
  C  C57  1  0.88630000  0.75000000  0.85330000  1.0
  C  C58  1  0.53150000  0.91250000  0.96816000  1.0
  C  C59  1  0.55950000  0.49931000  0.56725000  1.0
  C  C60  1  0.53150000  0.41250000  0.53184000  1.0
  C  C61  1  0.62530000  0.50205000  0.86073000  1.0
  C  C62  1  0.13650000  0.25000000  0.36790000  1.0
  C  C63  1  0.46850000  0.41250000  0.03184000  1.0
  C  C64  1  0.55950000  0.50069000  0.93275000  1.0
  C  C65  1  0.53150000  0.08750000  0.53184000  1.0
  C  C66  1  0.55950000  0.00069000  0.56725000  1.0
  C  C67  1  0.04750000  0.83760000  0.02343000  1.0
  C  C68  1  0.98780000  0.66280000  0.95620000  1.0
  C  C69  1  0.11370000  0.75000000  0.35330000  1.0
  C  C70  1  0.37470000  0.99795000  0.36073000  1.0
  C  C71  1  0.13650000  0.75000000  0.13210000  1.0
  C  C72  1  0.47170000  0.41350000  0.46500000  1.0
  C  C73  1  0.01220000  0.66280000  0.45620000  1.0
  C  C74  1  0.95740000  0.25000000  0.57690000  1.0
  C  C75  1  0.62530000  0.99795000  0.86073000  1.0
  C  C76  1  0.95250000  0.66240000  0.52343000  1.0
  C  C77  1  0.52830000  0.58650000  0.53500000  1.0
  C  C78  1  0.04750000  0.16240000  0.47657000  1.0
  C  C79  1  0.95250000  0.33760000  0.97657000  1.0
  C  C80  1  0.46850000  0.58750000  0.46816000  1.0
  C  C81  1  0.37470000  0.49795000  0.13927000  1.0
  C  C82  1  0.88630000  0.25000000  0.64670000  1.0
  C  C83  1  0.01220000  0.33720000  0.04380000  1.0
  C  C84  1  0.98780000  0.33720000  0.54380000  1.0
  C  C85  1  0.52830000  0.08650000  0.96500000  1.0
  C  C86  1  0.98780000  0.83720000  0.95620000  1.0
  C  C87  1  0.11370000  0.25000000  0.14670000  1.0
  C  C88  1  0.46850000  0.08750000  0.03184000  1.0
  C  C89  1  0.07600000  0.25000000  0.44220000  1.0
  C  C90  1  0.01220000  0.83720000  0.45620000  1.0
  C  C91  1  0.44050000  0.00069000  0.06725000  1.0
  C  C92  1  0.95740000  0.75000000  0.92310000  1.0
  C  C93  1  0.62530000  0.49795000  0.63927000  1.0
  C  C94  1  0.04260000  0.25000000  0.07690000  1.0
  C  C95  1  0.62530000  0.00205000  0.63927000  1.0
  C  C96  1  0.92400000  0.25000000  0.94220000  1.0
  C  C97  1  0.44050000  0.49931000  0.06725000  1.0
  C  C98  1  0.53150000  0.58750000  0.96816000  1.0
  C  C99  1  0.37470000  0.50205000  0.36073000  1.0
  C  C100  1  0.04260000  0.75000000  0.42310000  1.0
  C  C101  1  0.47170000  0.91350000  0.03500000  1.0
  C  C102  1  0.52830000  0.41350000  0.96500000  1.0
  C  C103  1  0.44050000  0.99931000  0.43275000  1.0
  C  C104  1  0.98780000  0.16280000  0.54380000  1.0
  C  C105  1  0.01220000  0.16280000  0.04380000  1.0
  C  C106  1  0.86350000  0.25000000  0.86790000  1.0
  C  C107  1  0.52830000  0.91350000  0.53500000  1.0
  C  C108  1  0.37470000  0.00205000  0.13927000  1.0
  C  C109  1  0.95250000  0.16240000  0.97657000  1.0
  C  C110  1  0.04750000  0.66240000  0.02343000  1.0
  C  C111  1  0.04750000  0.33760000  0.47657000  1.0
  O  O112  1  0.15957000  0.33121000  0.33933000  1.0
  O  O113  1  0.17810000  0.50000000  0.25000000  1.0
  O  O114  1  0.65661000  0.58341000  0.83734000  1.0
  O  O115  1  0.85921000  0.83124000  0.82689000  1.0
  O  O116  1  0.14079000  0.66876000  0.32689000  1.0
  O  O117  1  0.84043000  0.83121000  0.66067000  1.0
  O  O118  1  0.35626000  0.07822000  0.32863000  1.0
  O  O119  1  0.65661000  0.41659000  0.66266000  1.0
  O  O120  1  0.34339000  0.91659000  0.33734000  1.0
  O  O121  1  0.34339000  0.41659000  0.16266000  1.0
  O  O122  1  0.14079000  0.16876000  0.17311000  1.0
  O  O123  1  0.14079000  0.33124000  0.17311000  1.0
  O  O124  1  0.34339000  0.08341000  0.16266000  1.0
  O  O125  1  0.65661000  0.08341000  0.66266000  1.0
  O  O126  1  0.65661000  0.91659000  0.83734000  1.0
  O  O127  1  0.15957000  0.66879000  0.16067000  1.0
  O  O128  1  0.35626000  0.42178000  0.32863000  1.0
  O  O129  1  0.82190000  0.50000000  0.75000000  1.0
  O  O130  1  0.64374000  0.57822000  0.67137000  1.0
  O  O131  1  0.34339000  0.58341000  0.33734000  1.0
  O  O132  1  0.14079000  0.83124000  0.32689000  1.0
  O  O133  1  0.85921000  0.66876000  0.82689000  1.0
  O  O134  1  0.64374000  0.92178000  0.67137000  1.0
  O  O135  1  0.15957000  0.16879000  0.33933000  1.0
  O  O136  1  0.64374000  0.07822000  0.82863000  1.0
  O  O137  1  0.84043000  0.33121000  0.83933000  1.0
  O  O138  1  0.85921000  0.16876000  0.67311000  1.0
  O  O139  1  0.84043000  0.66879000  0.66067000  1.0
  O  O140  1  0.35626000  0.92178000  0.17137000  1.0
  O  O141  1  0.15957000  0.83121000  0.16067000  1.0
  O  O142  1  0.35626000  0.57822000  0.17137000  1.0
  O  O143  1  0.82190000  0.00000000  0.75000000  1.0
  O  O144  1  0.67910000  0.75000000  0.75342000  1.0
  O  O145  1  0.32090000  0.25000000  0.24658000  1.0
  O  O146  1  0.17810000  0.00000000  0.25000000  1.0
  O  O147  1  0.67910000  0.25000000  0.74658000  1.0
  O  O148  1  0.32090000  0.75000000  0.25342000  1.0
  O  O149  1  0.85921000  0.33124000  0.67311000  1.0
  O  O150  1  0.64374000  0.42178000  0.82863000  1.0
  O  O151  1  0.84043000  0.16879000  0.83933000  1.0
