# generated using pymatgen
data_Cd11H32(C2O)48
_symmetry_space_group_name_H-M   'P 1'
_cell_length_a   10.14300000
_cell_length_b   16.12700000
_cell_length_c   22.93700000
_cell_angle_alpha   79.01500000
_cell_angle_beta   84.96300000
_cell_angle_gamma   77.48400000
_symmetry_Int_Tables_number   1
_chemical_formula_structural   Cd11H32(C2O)48
_chemical_formula_sum   'Cd11 H32 C96 O48'
_cell_volume   3591.43471846
_cell_formula_units_Z   1
loop_
 _symmetry_equiv_pos_site_id
 _symmetry_equiv_pos_as_xyz
  1  'x, y, z'
loop_
 _atom_site_type_symbol
 _atom_site_label
 _atom_site_symmetry_multiplicity
 _atom_site_fract_x
 _atom_site_fract_y
 _atom_site_fract_z
 _atom_site_occupancy
  Cd  Cd0  1  0.20449000  0.97191000  0.21140000  1.0
  Cd  Cd1  1  0.13597000  0.44438000  0.19551000  1.0
  Cd  Cd2  1  0.42404000  0.03628000  0.30690000  1.0
  Cd  Cd3  1  0.49880000  0.68616000  0.23099000  1.0
  Cd  Cd4  1  0.32378000  0.52314000  0.28797000  1.0
  Cd  Cd5  1  0.79551000  0.02809000  0.78860000  1.0
  Cd  Cd6  1  0.86403000  0.55562000  0.80449000  1.0
  Cd  Cd7  1  0.57596000  0.96372000  0.69310000  1.0
  Cd  Cd8  1  0.50120000  0.31384000  0.76901000  1.0
  Cd  Cd9  1  0.67622000  0.47686000  0.71203000  1.0
  Cd  Cd10  1  0.50000000  0.00000000  0.50000000  1.0
  H  H11  1  0.87040000  0.14930000  0.08510000  1.0
  H  H12  1  0.48590000  0.14190000  0.06970000  1.0
  H  H13  1  0.68790000  0.99320000  0.20770000  1.0
  H  H14  1  0.49840000  0.33790000  0.08060000  1.0
  H  H15  1  0.88970000  0.35530000  0.05120000  1.0
  H  H16  1  0.66640000  0.45620000  0.18540000  1.0
  H  H17  1  0.73630000  0.40150000  0.94350000  1.0
  H  H18  1  0.67560000  0.12300000  0.96230000  1.0
  H  H19  1  0.20700000  0.61980000  0.45750000  1.0
  H  H20  1  0.19580000  0.90790000  0.44790000  1.0
  H  H21  1  0.95010000  0.83050000  0.58120000  1.0
  H  H22  1  0.09350000  0.95970000  0.68680000  1.0
  H  H23  1  0.33080000  0.87710000  0.55140000  1.0
  H  H24  1  0.95570000  0.66600000  0.56990000  1.0
  H  H25  1  0.12760000  0.49610000  0.70590000  1.0
  H  H26  1  0.35710000  0.61660000  0.58030000  1.0
  H  H27  1  0.12960000  0.85070000  0.91490000  1.0
  H  H28  1  0.51410000  0.85810000  0.93030000  1.0
  H  H29  1  0.31210000  0.00680000  0.79230000  1.0
  H  H30  1  0.50160000  0.66210000  0.91940000  1.0
  H  H31  1  0.11030000  0.64470000  0.94880000  1.0
  H  H32  1  0.33360000  0.54380000  0.81460000  1.0
  H  H33  1  0.26370000  0.59850000  0.05650000  1.0
  H  H34  1  0.32440000  0.87700000  0.03770000  1.0
  H  H35  1  0.79300000  0.38020000  0.54250000  1.0
  H  H36  1  0.80420000  0.09210000  0.55210000  1.0
  H  H37  1  0.04990000  0.16950000  0.41880000  1.0
  H  H38  1  0.90650000  0.04030000  0.31320000  1.0
  H  H39  1  0.66920000  0.12290000  0.44860000  1.0
  H  H40  1  0.04430000  0.33400000  0.43010000  1.0
  H  H41  1  0.87240000  0.50390000  0.29410000  1.0
  H  H42  1  0.64290000  0.38340000  0.41970000  1.0
  C  C43  1  0.93420000  0.02900000  0.17910000  1.0
  C  C44  1  0.80230000  0.06440000  0.15040000  1.0
  C  C45  1  0.79480000  0.12620000  0.09900000  1.0
  C  C46  1  0.67730000  0.15440000  0.06780000  1.0
  C  C47  1  0.56480000  0.12350000  0.09040000  1.0
  C  C48  1  0.56520000  0.06470000  0.14400000  1.0
  C  C49  1  0.68510000  0.03410000  0.17300000  1.0
  C  C50  1  0.44050000  0.03200000  0.16720000  1.0
  C  C51  1  0.43210000  0.41640000  0.17380000  1.0
  C  C52  1  0.56230000  0.39800000  0.13850000  1.0
  C  C53  1  0.57330000  0.35610000  0.09040000  1.0
  C  C54  1  0.69410000  0.34060000  0.05640000  1.0
  C  C55  1  0.80790000  0.36630000  0.07290000  1.0
  C  C56  1  0.79830000  0.40830000  0.12200000  1.0
  C  C57  1  0.67450000  0.42610000  0.15410000  1.0
  C  C58  1  0.92010000  0.42760000  0.14250000  1.0
  C  C59  1  0.70190000  0.29860000  0.00370000  1.0
  C  C60  1  0.72250000  0.34560000  0.94670000  1.0
  C  C61  1  0.72340000  0.31350000  0.89550000  1.0
  C  C62  1  0.70250000  0.22690000  0.90050000  1.0
  C  C63  1  0.68570000  0.17980000  0.95840000  1.0
  C  C64  1  0.68360000  0.21400000  0.00890000  1.0
  C  C65  1  0.74650000  0.36900000  0.83760000  1.0
  C  C66  1  0.71340000  0.17860000  0.84910000  1.0
  C  C67  1  0.28390000  0.86910000  0.34430000  1.0
  C  C68  1  0.24430000  0.81210000  0.40050000  1.0
  C  C69  1  0.24430000  0.72610000  0.40310000  1.0
  C  C70  1  0.20840000  0.67760000  0.45620000  1.0
  C  C71  1  0.17360000  0.71330000  0.50860000  1.0
  C  C72  1  0.16910000  0.80100000  0.50430000  1.0
  C  C73  1  0.20210000  0.84890000  0.45060000  1.0
  C  C74  1  0.29410000  0.67980000  0.35020000  1.0
  C  C75  1  0.14340000  0.84540000  0.55670000  1.0
  C  C76  1  0.01950000  0.85440000  0.59050000  1.0
  C  C77  1  0.00200000  0.89890000  0.63770000  1.0
  C  C78  1  0.10570000  0.93200000  0.65410000  1.0
  C  C79  1  0.23070000  0.92320000  0.62050000  1.0
  C  C80  1  0.24880000  0.88190000  0.57340000  1.0
  C  C81  1  0.35070000  0.95240000  0.63710000  1.0
  C  C82  1  0.86520000  0.91340000  0.66930000  1.0
  C  C83  1  0.15790000  0.65230000  0.56580000  1.0
  C  C84  1  0.03330000  0.63630000  0.58940000  1.0
  C  C85  1  0.02100000  0.57690000  0.64140000  1.0
  C  C86  1  0.13530000  0.53400000  0.67030000  1.0
  C  C87  1  0.26190000  0.54600000  0.64770000  1.0
  C  C88  1  0.27250000  0.60690000  0.59530000  1.0
  C  C89  1  0.38730000  0.49690000  0.67890000  1.0
  C  C90  1  0.88530000  0.55780000  0.66350000  1.0
  C  C91  1  0.06580000  0.97100000  0.82090000  1.0
  C  C92  1  0.19770000  0.93560000  0.84960000  1.0
  C  C93  1  0.20520000  0.87380000  0.90100000  1.0
  C  C94  1  0.32270000  0.84560000  0.93220000  1.0
  C  C95  1  0.43520000  0.87650000  0.90960000  1.0
  C  C96  1  0.43480000  0.93530000  0.85600000  1.0
  C  C97  1  0.31490000  0.96590000  0.82700000  1.0
  C  C98  1  0.55950000  0.96800000  0.83280000  1.0
  C  C99  1  0.56790000  0.58360000  0.82620000  1.0
  C  C100  1  0.43770000  0.60200000  0.86150000  1.0
  C  C101  1  0.42670000  0.64390000  0.90960000  1.0
  C  C102  1  0.30590000  0.65940000  0.94360000  1.0
  C  C103  1  0.19210000  0.63370000  0.92710000  1.0
  C  C104  1  0.20170000  0.59170000  0.87800000  1.0
  C  C105  1  0.32550000  0.57390000  0.84590000  1.0
  C  C106  1  0.07990000  0.57240000  0.85750000  1.0
  C  C107  1  0.29810000  0.70140000  0.99630000  1.0
  C  C108  1  0.27750000  0.65440000  0.05330000  1.0
  C  C109  1  0.27660000  0.68650000  0.10450000  1.0
  C  C110  1  0.29750000  0.77310000  0.09950000  1.0
  C  C111  1  0.31430000  0.82020000  0.04160000  1.0
  C  C112  1  0.31640000  0.78600000  0.99110000  1.0
  C  C113  1  0.25350000  0.63100000  0.16240000  1.0
  C  C114  1  0.28660000  0.82140000  0.15090000  1.0
  C  C115  1  0.71610000  0.13090000  0.65570000  1.0
  C  C116  1  0.75570000  0.18790000  0.59950000  1.0
  C  C117  1  0.75570000  0.27390000  0.59690000  1.0
  C  C118  1  0.79160000  0.32240000  0.54380000  1.0
  C  C119  1  0.82640000  0.28670000  0.49140000  1.0
  C  C120  1  0.83090000  0.19900000  0.49570000  1.0
  C  C121  1  0.79790000  0.15110000  0.54940000  1.0
  C  C122  1  0.70590000  0.32020000  0.64980000  1.0
  C  C123  1  0.85660000  0.15460000  0.44330000  1.0
  C  C124  1  0.98050000  0.14560000  0.40950000  1.0
  C  C125  1  0.99800000  0.10110000  0.36230000  1.0
  C  C126  1  0.89430000  0.06800000  0.34590000  1.0
  C  C127  1  0.76930000  0.07680000  0.37950000  1.0
  C  C128  1  0.75120000  0.11810000  0.42660000  1.0
  C  C129  1  0.64930000  0.04760000  0.36290000  1.0
  C  C130  1  0.13480000  0.08660000  0.33070000  1.0
  C  C131  1  0.84210000  0.34770000  0.43420000  1.0
  C  C132  1  0.96670000  0.36370000  0.41060000  1.0
  C  C133  1  0.97900000  0.42310000  0.35860000  1.0
  C  C134  1  0.86470000  0.46600000  0.32970000  1.0
  C  C135  1  0.73810000  0.45400000  0.35230000  1.0
  C  C136  1  0.72750000  0.39310000  0.40470000  1.0
  C  C137  1  0.61270000  0.50310000  0.32110000  1.0
  C  C138  1  0.11470000  0.44220000  0.33650000  1.0
  O  O139  1  0.94540000  0.96720000  0.22210000  1.0
  O  O140  1  0.03350000  0.06250000  0.15950000  1.0
  O  O141  1  0.43650000  0.98820000  0.22000000  1.0
  O  O142  1  0.34090000  0.04820000  0.13570000  1.0
  O  O143  1  0.33150000  0.40670000  0.14940000  1.0
  O  O144  1  0.42990000  0.43420000  0.22420000  1.0
  O  O145  1  0.91140000  0.46430000  0.18640000  1.0
  O  O146  1  0.03380000  0.40290000  0.11620000  1.0
  O  O147  1  0.83240000  0.41310000  0.83600000  1.0
  O  O148  1  0.68130000  0.36890000  0.79390000  1.0
  O  O149  1  0.61720000  0.18830000  0.81770000  1.0
  O  O150  1  0.81730000  0.12820000  0.84340000  1.0
  O  O151  1  0.21170000  0.88260000  0.30070000  1.0
  O  O152  1  0.38060000  0.90380000  0.34720000  1.0
  O  O153  1  0.38830000  0.70530000  0.31840000  1.0
  O  O154  1  0.23410000  0.62170000  0.34470000  1.0
  O  O155  1  0.45280000  0.94930000  0.60280000  1.0
  O  O156  1  0.34400000  0.97840000  0.68600000  1.0
  O  O157  1  0.85010000  0.92500000  0.72210000  1.0
  O  O158  1  0.76210000  0.91450000  0.63910000  1.0
  O  O159  1  0.49550000  0.51970000  0.65960000  1.0
  O  O160  1  0.37650000  0.43770000  0.72240000  1.0
  O  O161  1  0.87980000  0.51130000  0.71490000  1.0
  O  O162  1  0.78880000  0.57970000  0.63110000  1.0
  O  O163  1  0.05460000  0.03280000  0.77790000  1.0
  O  O164  1  0.96650000  0.93750000  0.84050000  1.0
  O  O165  1  0.56350000  0.01180000  0.78000000  1.0
  O  O166  1  0.65910000  0.95180000  0.86430000  1.0
  O  O167  1  0.66850000  0.59330000  0.85060000  1.0
  O  O168  1  0.57010000  0.56580000  0.77580000  1.0
  O  O169  1  0.08860000  0.53570000  0.81360000  1.0
  O  O170  1  0.96620000  0.59710000  0.88380000  1.0
  O  O171  1  0.16760000  0.58690000  0.16400000  1.0
  O  O172  1  0.31870000  0.63110000  0.20610000  1.0
  O  O173  1  0.38280000  0.81170000  0.18230000  1.0
  O  O174  1  0.18270000  0.87180000  0.15660000  1.0
  O  O175  1  0.78830000  0.11740000  0.69930000  1.0
  O  O176  1  0.61940000  0.09620000  0.65280000  1.0
  O  O177  1  0.61170000  0.29470000  0.68160000  1.0
  O  O178  1  0.76590000  0.37830000  0.65530000  1.0
  O  O179  1  0.54720000  0.05070000  0.39720000  1.0
  O  O180  1  0.65600000  0.02160000  0.31400000  1.0
  O  O181  1  0.14990000  0.07500000  0.27790000  1.0
  O  O182  1  0.23790000  0.08550000  0.36090000  1.0
  O  O183  1  0.50450000  0.48030000  0.34040000  1.0
  O  O184  1  0.62350000  0.56230000  0.27760000  1.0
  O  O185  1  0.12020000  0.48870000  0.28510000  1.0
  O  O186  1  0.21120000  0.42030000  0.36890000  1.0
