# generated using pymatgen
data_CdH4(CN)8
_symmetry_space_group_name_H-M   'P 1'
_cell_length_a   16.56110000
_cell_length_b   16.56110000
_cell_length_c   22.31200000
_cell_angle_alpha   90.00000000
_cell_angle_beta   90.00000000
_cell_angle_gamma   90.00000000
_symmetry_Int_Tables_number   1
_chemical_formula_structural   CdH4(CN)8
_chemical_formula_sum   'Cd8 H32 C64 N64'
_cell_volume   6119.51298098
_cell_formula_units_Z   8
loop_
 _symmetry_equiv_pos_site_id
 _symmetry_equiv_pos_as_xyz
  1  'x, y, z'
loop_
 _atom_site_type_symbol
 _atom_site_label
 _atom_site_symmetry_multiplicity
 _atom_site_fract_x
 _atom_site_fract_y
 _atom_site_fract_z
 _atom_site_occupancy
  Cd  Cd0  1  0.00000000  0.82890000  0.00000000  1.0
  Cd  Cd1  1  0.50000000  0.32890000  0.50000000  1.0
  Cd  Cd2  1  0.00000000  0.17110000  0.00000000  1.0
  Cd  Cd3  1  0.50000000  0.67110000  0.50000000  1.0
  Cd  Cd4  1  0.17110000  0.00000000  0.00000000  1.0
  Cd  Cd5  1  0.67110000  0.50000000  0.50000000  1.0
  Cd  Cd6  1  0.82890000  0.00000000  0.00000000  1.0
  Cd  Cd7  1  0.32890000  0.50000000  0.50000000  1.0
  H  H8  1  0.13880000  0.69650000  0.79280000  1.0
  H  H9  1  0.63880000  0.19650000  0.29280000  1.0
  H  H10  1  0.86120000  0.30350000  0.79280000  1.0
  H  H11  1  0.36120000  0.80350000  0.29280000  1.0
  H  H12  1  0.30350000  0.13880000  0.79280000  1.0
  H  H13  1  0.80350000  0.63880000  0.29280000  1.0
  H  H14  1  0.69650000  0.86120000  0.79280000  1.0
  H  H15  1  0.19650000  0.36120000  0.29280000  1.0
  H  H16  1  0.86120000  0.69650000  0.20720000  1.0
  H  H17  1  0.36120000  0.19650000  0.70720000  1.0
  H  H18  1  0.13880000  0.30350000  0.20720000  1.0
  H  H19  1  0.63880000  0.80350000  0.70720000  1.0
  H  H20  1  0.69650000  0.13880000  0.20720000  1.0
  H  H21  1  0.19650000  0.63880000  0.70720000  1.0
  H  H22  1  0.30350000  0.86120000  0.20720000  1.0
  H  H23  1  0.80350000  0.36120000  0.70720000  1.0
  H  H24  1  0.86120000  0.30350000  0.20720000  1.0
  H  H25  1  0.36120000  0.80350000  0.70720000  1.0
  H  H26  1  0.13880000  0.69650000  0.20720000  1.0
  H  H27  1  0.63880000  0.19650000  0.70720000  1.0
  H  H28  1  0.69650000  0.86120000  0.20720000  1.0
  H  H29  1  0.19650000  0.36120000  0.70720000  1.0
  H  H30  1  0.30350000  0.13880000  0.20720000  1.0
  H  H31  1  0.80350000  0.63880000  0.70720000  1.0
  H  H32  1  0.13880000  0.30350000  0.79280000  1.0
  H  H33  1  0.63880000  0.80350000  0.29280000  1.0
  H  H34  1  0.86120000  0.69650000  0.79280000  1.0
  H  H35  1  0.36120000  0.19650000  0.29280000  1.0
  H  H36  1  0.30350000  0.86120000  0.79280000  1.0
  H  H37  1  0.80350000  0.36120000  0.29280000  1.0
  H  H38  1  0.69650000  0.13880000  0.79280000  1.0
  H  H39  1  0.19650000  0.63880000  0.29280000  1.0
  C  C40  1  0.18430000  0.71960000  0.77550000  1.0
  C  C41  1  0.68430000  0.21960000  0.27550000  1.0
  C  C42  1  0.81570000  0.28040000  0.77550000  1.0
  C  C43  1  0.31570000  0.78040000  0.27550000  1.0
  C  C44  1  0.28040000  0.18430000  0.77550000  1.0
  C  C45  1  0.78040000  0.68430000  0.27550000  1.0
  C  C46  1  0.71960000  0.81570000  0.77550000  1.0
  C  C47  1  0.21960000  0.31570000  0.27550000  1.0
  C  C48  1  0.81570000  0.71960000  0.22450000  1.0
  C  C49  1  0.31570000  0.21960000  0.72450000  1.0
  C  C50  1  0.18430000  0.28040000  0.22450000  1.0
  C  C51  1  0.68430000  0.78040000  0.72450000  1.0
  C  C52  1  0.71960000  0.18430000  0.22450000  1.0
  C  C53  1  0.21960000  0.68430000  0.72450000  1.0
  C  C54  1  0.28040000  0.81570000  0.22450000  1.0
  C  C55  1  0.78040000  0.31570000  0.72450000  1.0
  C  C56  1  0.81570000  0.28040000  0.22450000  1.0
  C  C57  1  0.31570000  0.78040000  0.72450000  1.0
  C  C58  1  0.18430000  0.71960000  0.22450000  1.0
  C  C59  1  0.68430000  0.21960000  0.72450000  1.0
  C  C60  1  0.71960000  0.81570000  0.22450000  1.0
  C  C61  1  0.21960000  0.31570000  0.72450000  1.0
  C  C62  1  0.28040000  0.18430000  0.22450000  1.0
  C  C63  1  0.78040000  0.68430000  0.72450000  1.0
  C  C64  1  0.18430000  0.28040000  0.77550000  1.0
  C  C65  1  0.68430000  0.78040000  0.27550000  1.0
  C  C66  1  0.81570000  0.71960000  0.77550000  1.0
  C  C67  1  0.31570000  0.21960000  0.27550000  1.0
  C  C68  1  0.28040000  0.81570000  0.77550000  1.0
  C  C69  1  0.78040000  0.31570000  0.27550000  1.0
  C  C70  1  0.71960000  0.18430000  0.77550000  1.0
  C  C71  1  0.21960000  0.68430000  0.27550000  1.0
  C  C72  1  0.21560000  0.78440000  0.79820000  1.0
  C  C73  1  0.17790000  0.82210000  0.85400000  1.0
  C  C74  1  0.71560000  0.28440000  0.29820000  1.0
  C  C75  1  0.67790000  0.32210000  0.35400000  1.0
  C  C76  1  0.78440000  0.21560000  0.79820000  1.0
  C  C77  1  0.82210000  0.17790000  0.85400000  1.0
  C  C78  1  0.28440000  0.71560000  0.29820000  1.0
  C  C79  1  0.32210000  0.67790000  0.35400000  1.0
  C  C80  1  0.21560000  0.21560000  0.79820000  1.0
  C  C81  1  0.17790000  0.17790000  0.85400000  1.0
  C  C82  1  0.71560000  0.71560000  0.29820000  1.0
  C  C83  1  0.67790000  0.67790000  0.35400000  1.0
  C  C84  1  0.78440000  0.78440000  0.79820000  1.0
  C  C85  1  0.82210000  0.82210000  0.85400000  1.0
  C  C86  1  0.28440000  0.28440000  0.29820000  1.0
  C  C87  1  0.32210000  0.32210000  0.35400000  1.0
  C  C88  1  0.78440000  0.78440000  0.20180000  1.0
  C  C89  1  0.82210000  0.82210000  0.14600000  1.0
  C  C90  1  0.28440000  0.28440000  0.70180000  1.0
  C  C91  1  0.32210000  0.32210000  0.64600000  1.0
  C  C92  1  0.21560000  0.21560000  0.20180000  1.0
  C  C93  1  0.17790000  0.17790000  0.14600000  1.0
  C  C94  1  0.71560000  0.71560000  0.70180000  1.0
  C  C95  1  0.67790000  0.67790000  0.64600000  1.0
  C  C96  1  0.78440000  0.21560000  0.20180000  1.0
  C  C97  1  0.82210000  0.17790000  0.14600000  1.0
  C  C98  1  0.28440000  0.71560000  0.70180000  1.0
  C  C99  1  0.32210000  0.67790000  0.64600000  1.0
  C  C100  1  0.21560000  0.78440000  0.20180000  1.0
  C  C101  1  0.17790000  0.82210000  0.14600000  1.0
  C  C102  1  0.71560000  0.28440000  0.70180000  1.0
  C  C103  1  0.67790000  0.32210000  0.64600000  1.0
  N  N104  1  0.10260000  0.84160000  0.92780000  1.0
  N  N105  1  0.11080000  0.79520000  0.88240000  1.0
  N  N106  1  0.60260000  0.34160000  0.42780000  1.0
  N  N107  1  0.61080000  0.29520000  0.38240000  1.0
  N  N108  1  0.89740000  0.15840000  0.92780000  1.0
  N  N109  1  0.88920000  0.20480000  0.88240000  1.0
  N  N110  1  0.39740000  0.65840000  0.42780000  1.0
  N  N111  1  0.38920000  0.70480000  0.38240000  1.0
  N  N112  1  0.15840000  0.10260000  0.92780000  1.0
  N  N113  1  0.20480000  0.11080000  0.88240000  1.0
  N  N114  1  0.65840000  0.60260000  0.42780000  1.0
  N  N115  1  0.70480000  0.61080000  0.38240000  1.0
  N  N116  1  0.84160000  0.89740000  0.92780000  1.0
  N  N117  1  0.79520000  0.88920000  0.88240000  1.0
  N  N118  1  0.34160000  0.39740000  0.42780000  1.0
  N  N119  1  0.29520000  0.38920000  0.38240000  1.0
  N  N120  1  0.89740000  0.84160000  0.07220000  1.0
  N  N121  1  0.88920000  0.79520000  0.11760000  1.0
  N  N122  1  0.39740000  0.34160000  0.57220000  1.0
  N  N123  1  0.38920000  0.29520000  0.61760000  1.0
  N  N124  1  0.10260000  0.15840000  0.07220000  1.0
  N  N125  1  0.11080000  0.20480000  0.11760000  1.0
  N  N126  1  0.60260000  0.65840000  0.57220000  1.0
  N  N127  1  0.61080000  0.70480000  0.61760000  1.0
  N  N128  1  0.84160000  0.10260000  0.07220000  1.0
  N  N129  1  0.79520000  0.11080000  0.11760000  1.0
  N  N130  1  0.34160000  0.60260000  0.57220000  1.0
  N  N131  1  0.29520000  0.61080000  0.61760000  1.0
  N  N132  1  0.15840000  0.89740000  0.07220000  1.0
  N  N133  1  0.20480000  0.88920000  0.11760000  1.0
  N  N134  1  0.65840000  0.39740000  0.57220000  1.0
  N  N135  1  0.70480000  0.38920000  0.61760000  1.0
  N  N136  1  0.89740000  0.15840000  0.07220000  1.0
  N  N137  1  0.88920000  0.20480000  0.11760000  1.0
  N  N138  1  0.39740000  0.65840000  0.57220000  1.0
  N  N139  1  0.38920000  0.70480000  0.61760000  1.0
  N  N140  1  0.10260000  0.84160000  0.07220000  1.0
  N  N141  1  0.11080000  0.79520000  0.11760000  1.0
  N  N142  1  0.60260000  0.34160000  0.57220000  1.0
  N  N143  1  0.61080000  0.29520000  0.61760000  1.0
  N  N144  1  0.84160000  0.89740000  0.07220000  1.0
  N  N145  1  0.79520000  0.88920000  0.11760000  1.0
  N  N146  1  0.34160000  0.39740000  0.57220000  1.0
  N  N147  1  0.29520000  0.38920000  0.61760000  1.0
  N  N148  1  0.15840000  0.10260000  0.07220000  1.0
  N  N149  1  0.20480000  0.11080000  0.11760000  1.0
  N  N150  1  0.65840000  0.60260000  0.57220000  1.0
  N  N151  1  0.70480000  0.61080000  0.61760000  1.0
  N  N152  1  0.10260000  0.15840000  0.92780000  1.0
  N  N153  1  0.11080000  0.20480000  0.88240000  1.0
  N  N154  1  0.60260000  0.65840000  0.42780000  1.0
  N  N155  1  0.61080000  0.70480000  0.38240000  1.0
  N  N156  1  0.89740000  0.84160000  0.92780000  1.0
  N  N157  1  0.88920000  0.79520000  0.88240000  1.0
  N  N158  1  0.39740000  0.34160000  0.42780000  1.0
  N  N159  1  0.38920000  0.29520000  0.38240000  1.0
  N  N160  1  0.15840000  0.89740000  0.92780000  1.0
  N  N161  1  0.20480000  0.88920000  0.88240000  1.0
  N  N162  1  0.65840000  0.39740000  0.42780000  1.0
  N  N163  1  0.70480000  0.38920000  0.38240000  1.0
  N  N164  1  0.84160000  0.10260000  0.92780000  1.0
  N  N165  1  0.79520000  0.11080000  0.88240000  1.0
  N  N166  1  0.34160000  0.60260000  0.42780000  1.0
  N  N167  1  0.29520000  0.61080000  0.38240000  1.0
