# generated using pymatgen
data_Eu3H45C73(N3O8)2
_symmetry_space_group_name_H-M   'P 1'
_cell_length_a   14.65340000
_cell_length_b   17.76870000
_cell_length_c   31.94620000
_cell_angle_alpha   90.00000000
_cell_angle_beta   90.29200000
_cell_angle_gamma   90.00000000
_symmetry_Int_Tables_number   1
_chemical_formula_structural   Eu3H45C73(N3O8)2
_chemical_formula_sum   'Eu12 H180 C292 N24 O64'
_cell_volume   8317.78376838
_cell_formula_units_Z   4
loop_
 _symmetry_equiv_pos_site_id
 _symmetry_equiv_pos_as_xyz
  1  'x, y, z'
loop_
 _atom_site_type_symbol
 _atom_site_label
 _atom_site_symmetry_multiplicity
 _atom_site_fract_x
 _atom_site_fract_y
 _atom_site_fract_z
 _atom_site_occupancy
  Eu  Eu0  1  0.85316000  0.93813000  0.06939000  1.0
  Eu  Eu1  1  0.09423000  0.92457000  0.01238000  1.0
  Eu  Eu2  1  0.64187000  0.99742000  0.00142000  1.0
  Eu  Eu3  1  0.64684000  0.43813000  0.43061000  1.0
  Eu  Eu4  1  0.40577000  0.42457000  0.48762000  1.0
  Eu  Eu5  1  0.85813000  0.49742000  0.49858000  1.0
  Eu  Eu6  1  0.14684000  0.06187000  0.93061000  1.0
  Eu  Eu7  1  0.90577000  0.07543000  0.98762000  1.0
  Eu  Eu8  1  0.35813000  0.00258000  0.99858000  1.0
  Eu  Eu9  1  0.35316000  0.56187000  0.56939000  1.0
  Eu  Eu10  1  0.59423000  0.57543000  0.51238000  1.0
  Eu  Eu11  1  0.14187000  0.50258000  0.50142000  1.0
  H  H12  1  0.43540000  0.64400000  0.93980000  1.0
  H  H13  1  0.40730000  0.42160000  0.91680000  1.0
  H  H14  1  0.45950000  0.31360000  0.93990000  1.0
  H  H15  1  0.53090000  0.19720000  0.94920000  1.0
  H  H16  1  0.77300000  0.30200000  0.96380000  1.0
  H  H17  1  0.70190000  0.41800000  0.95410000  1.0
  H  H18  1  0.25760000  0.44400000  0.92110000  1.0
  H  H19  1  0.11430000  0.46800000  0.89510000  1.0
  H  H20  1  0.17990000  0.67620000  0.86840000  1.0
  H  H21  1  0.32500000  0.65890000  0.89430000  1.0
  H  H22  1  0.17920000  0.87630000  0.10400000  1.0
  H  H23  1  0.29820000  0.81370000  0.13780000  1.0
  H  H24  1  0.11580000  0.70060000  0.20840000  1.0
  H  H25  1  0.99700000  0.76330000  0.17460000  1.0
  H  H26  1  0.39130000  0.72440000  0.15150000  1.0
  H  H27  1  0.47850000  0.60740000  0.25250000  1.0
  H  H28  1  0.43620000  0.54620000  0.30500000  1.0
  H  H29  1  0.39920000  0.50290000  0.37170000  1.0
  H  H30  1  0.15980000  0.61500000  0.36600000  1.0
  H  H31  1  0.19690000  0.65960000  0.30030000  1.0
  H  H32  1  0.59210000  0.57250000  0.21190000  1.0
  H  H33  1  0.73900000  0.57750000  0.18590000  1.0
  H  H34  1  0.68320000  0.75660000  0.12070000  1.0
  H  H35  1  0.53570000  0.75930000  0.14630000  1.0
  H  H36  1  0.45060000  0.95060000  0.10800000  1.0
  H  H37  1  0.35950000  0.93380000  0.16690000  1.0
  H  H38  1  0.58380000  0.88150000  0.23520000  1.0
  H  H39  1  0.67370000  0.90290000  0.17700000  1.0
  H  H40  1  0.28700000  0.93690000  0.22800000  1.0
  H  H41  1  0.27770000  0.81540000  0.33480000  1.0
  H  H42  1  0.37030000  0.77090000  0.38470000  1.0
  H  H43  1  0.44110000  0.67620000  0.42330000  1.0
  H  H44  1  0.62100000  0.64330000  0.32930000  1.0
  H  H45  1  0.55430000  0.74030000  0.29200000  1.0
  H  H46  1  0.13600000  0.89820000  0.22520000  1.0
  H  H47  1  0.98370000  0.92340000  0.23310000  1.0
  H  H48  1  0.01010000  0.93710000  0.35310000  1.0
  H  H49  1  0.16500000  0.90810000  0.35070000  1.0
  H  H50  1  0.49370000  0.13260000  0.06750000  1.0
  H  H51  1  0.77900000  0.06100000  0.05640000  1.0
  H  H52  1  0.91500000  0.91800000  0.98600000  1.0
  H  H53  1  0.63980000  0.82340000  0.96170000  1.0
  H  H54  1  0.55170000  0.72690000  0.93330000  1.0
  H  H55  1  0.69220000  0.57590000  0.00210000  1.0
  H  H56  1  0.77550000  0.67330000  0.03320000  1.0
  H  H57  1  0.06460000  0.14400000  0.56020000  1.0
  H  H58  1  0.09270000  0.92160000  0.58320000  1.0
  H  H59  1  0.04050000  0.81360000  0.56010000  1.0
  H  H60  1  0.96910000  0.69720000  0.55080000  1.0
  H  H61  1  0.72700000  0.80200000  0.53620000  1.0
  H  H62  1  0.79810000  0.91800000  0.54590000  1.0
  H  H63  1  0.24240000  0.94400000  0.57890000  1.0
  H  H64  1  0.38570000  0.96800000  0.60490000  1.0
  H  H65  1  0.32010000  0.17620000  0.63160000  1.0
  H  H66  1  0.17500000  0.15890000  0.60570000  1.0
  H  H67  1  0.32080000  0.37630000  0.39600000  1.0
  H  H68  1  0.20180000  0.31370000  0.36220000  1.0
  H  H69  1  0.38420000  0.20060000  0.29160000  1.0
  H  H70  1  0.50300000  0.26330000  0.32540000  1.0
  H  H71  1  0.10870000  0.22440000  0.34850000  1.0
  H  H72  1  0.02150000  0.10740000  0.24750000  1.0
  H  H73  1  0.06380000  0.04620000  0.19500000  1.0
  H  H74  1  0.10080000  0.00290000  0.12830000  1.0
  H  H75  1  0.34020000  0.11500000  0.13400000  1.0
  H  H76  1  0.30310000  0.15960000  0.19970000  1.0
  H  H77  1  0.90790000  0.07250000  0.28810000  1.0
  H  H78  1  0.76100000  0.07750000  0.31410000  1.0
  H  H79  1  0.81680000  0.25660000  0.37930000  1.0
  H  H80  1  0.96430000  0.25930000  0.35370000  1.0
  H  H81  1  0.04940000  0.45060000  0.39200000  1.0
  H  H82  1  0.14050000  0.43380000  0.33310000  1.0
  H  H83  1  0.91620000  0.38150000  0.26480000  1.0
  H  H84  1  0.82630000  0.40290000  0.32300000  1.0
  H  H85  1  0.21300000  0.43690000  0.27200000  1.0
  H  H86  1  0.22230000  0.31540000  0.16520000  1.0
  H  H87  1  0.12970000  0.27090000  0.11530000  1.0
  H  H88  1  0.05890000  0.17620000  0.07670000  1.0
  H  H89  1  0.87900000  0.14330000  0.17070000  1.0
  H  H90  1  0.94570000  0.24030000  0.20800000  1.0
  H  H91  1  0.36400000  0.39820000  0.27480000  1.0
  H  H92  1  0.51630000  0.42340000  0.26690000  1.0
  H  H93  1  0.48990000  0.43710000  0.14690000  1.0
  H  H94  1  0.33500000  0.40810000  0.14930000  1.0
  H  H95  1  0.00630000  0.63260000  0.43250000  1.0
  H  H96  1  0.72100000  0.56100000  0.44360000  1.0
  H  H97  1  0.58500000  0.41800000  0.51400000  1.0
  H  H98  1  0.86020000  0.32340000  0.53830000  1.0
  H  H99  1  0.94830000  0.22690000  0.56670000  1.0
  H  H100  1  0.80780000  0.07590000  0.49790000  1.0
  H  H101  1  0.72450000  0.17330000  0.46680000  1.0
  H  H102  1  0.56460000  0.35600000  0.06020000  1.0
  H  H103  1  0.59270000  0.57840000  0.08320000  1.0
  H  H104  1  0.54050000  0.68640000  0.06010000  1.0
  H  H105  1  0.46910000  0.80280000  0.05080000  1.0
  H  H106  1  0.22700000  0.69800000  0.03620000  1.0
  H  H107  1  0.29810000  0.58200000  0.04590000  1.0
  H  H108  1  0.74240000  0.55600000  0.07890000  1.0
  H  H109  1  0.88570000  0.53200000  0.10490000  1.0
  H  H110  1  0.82010000  0.32380000  0.13160000  1.0
  H  H111  1  0.67500000  0.34110000  0.10570000  1.0
  H  H112  1  0.82080000  0.12370000  0.89600000  1.0
  H  H113  1  0.70180000  0.18630000  0.86220000  1.0
  H  H114  1  0.88420000  0.29940000  0.79160000  1.0
  H  H115  1  0.00300000  0.23670000  0.82540000  1.0
  H  H116  1  0.60870000  0.27560000  0.84850000  1.0
  H  H117  1  0.52150000  0.39260000  0.74750000  1.0
  H  H118  1  0.56380000  0.45380000  0.69500000  1.0
  H  H119  1  0.60080000  0.49710000  0.62830000  1.0
  H  H120  1  0.84020000  0.38500000  0.63400000  1.0
  H  H121  1  0.80310000  0.34040000  0.69970000  1.0
  H  H122  1  0.40790000  0.42750000  0.78810000  1.0
  H  H123  1  0.26100000  0.42250000  0.81410000  1.0
  H  H124  1  0.31680000  0.24340000  0.87930000  1.0
  H  H125  1  0.46430000  0.24070000  0.85370000  1.0
  H  H126  1  0.54940000  0.04940000  0.89200000  1.0
  H  H127  1  0.64050000  0.06620000  0.83310000  1.0
  H  H128  1  0.41620000  0.11850000  0.76480000  1.0
  H  H129  1  0.32630000  0.09710000  0.82300000  1.0
  H  H130  1  0.71300000  0.06310000  0.77200000  1.0
  H  H131  1  0.72230000  0.18460000  0.66520000  1.0
  H  H132  1  0.62970000  0.22910000  0.61530000  1.0
  H  H133  1  0.55890000  0.32380000  0.57670000  1.0
  H  H134  1  0.37900000  0.35670000  0.67070000  1.0
  H  H135  1  0.44570000  0.25970000  0.70800000  1.0
  H  H136  1  0.86400000  0.10180000  0.77480000  1.0
  H  H137  1  0.01630000  0.07660000  0.76690000  1.0
  H  H138  1  0.98990000  0.06290000  0.64690000  1.0
  H  H139  1  0.83500000  0.09190000  0.64930000  1.0
  H  H140  1  0.50630000  0.86740000  0.93250000  1.0
  H  H141  1  0.22100000  0.93900000  0.94360000  1.0
  H  H142  1  0.08500000  0.08200000  0.01400000  1.0
  H  H143  1  0.36020000  0.17660000  0.03830000  1.0
  H  H144  1  0.44830000  0.27310000  0.06670000  1.0
  H  H145  1  0.30780000  0.42410000  0.99790000  1.0
  H  H146  1  0.22450000  0.32670000  0.96680000  1.0
  H  H147  1  0.93540000  0.85600000  0.43980000  1.0
  H  H148  1  0.90730000  0.07840000  0.41680000  1.0
  H  H149  1  0.95950000  0.18640000  0.43990000  1.0
  H  H150  1  0.03090000  0.30280000  0.44920000  1.0
  H  H151  1  0.27300000  0.19800000  0.46380000  1.0
  H  H152  1  0.20190000  0.08200000  0.45410000  1.0
  H  H153  1  0.75760000  0.05600000  0.42110000  1.0
  H  H154  1  0.61430000  0.03200000  0.39510000  1.0
  H  H155  1  0.67990000  0.82380000  0.36840000  1.0
  H  H156  1  0.82500000  0.84110000  0.39430000  1.0
  H  H157  1  0.67920000  0.62370000  0.60400000  1.0
  H  H158  1  0.79820000  0.68630000  0.63780000  1.0
  H  H159  1  0.61580000  0.79940000  0.70840000  1.0
  H  H160  1  0.49700000  0.73670000  0.67460000  1.0
  H  H161  1  0.89130000  0.77560000  0.65150000  1.0
  H  H162  1  0.97850000  0.89260000  0.75250000  1.0
  H  H163  1  0.93620000  0.95380000  0.80500000  1.0
  H  H164  1  0.89920000  0.99710000  0.87170000  1.0
  H  H165  1  0.65980000  0.88500000  0.86600000  1.0
  H  H166  1  0.69690000  0.84040000  0.80030000  1.0
  H  H167  1  0.09210000  0.92750000  0.71190000  1.0
  H  H168  1  0.23900000  0.92250000  0.68590000  1.0
  H  H169  1  0.18320000  0.74340000  0.62070000  1.0
  H  H170  1  0.03570000  0.74070000  0.64630000  1.0
  H  H171  1  0.95060000  0.54940000  0.60800000  1.0
  H  H172  1  0.85950000  0.56620000  0.66690000  1.0
  H  H173  1  0.08380000  0.61850000  0.73520000  1.0
  H  H174  1  0.17370000  0.59710000  0.67700000  1.0
  H  H175  1  0.78700000  0.56310000  0.72800000  1.0
  H  H176  1  0.77770000  0.68460000  0.83480000  1.0
  H  H177  1  0.87030000  0.72910000  0.88470000  1.0
  H  H178  1  0.94110000  0.82380000  0.92330000  1.0
  H  H179  1  0.12100000  0.85670000  0.82930000  1.0
  H  H180  1  0.05430000  0.75970000  0.79200000  1.0
  H  H181  1  0.63600000  0.60180000  0.72520000  1.0
  H  H182  1  0.48370000  0.57660000  0.73310000  1.0
  H  H183  1  0.51010000  0.56290000  0.85310000  1.0
  H  H184  1  0.66500000  0.59190000  0.85070000  1.0
  H  H185  1  0.99370000  0.36740000  0.56750000  1.0
  H  H186  1  0.27900000  0.43900000  0.55640000  1.0
  H  H187  1  0.41500000  0.58200000  0.48600000  1.0
  H  H188  1  0.13980000  0.67660000  0.46170000  1.0
  H  H189  1  0.05170000  0.77310000  0.43330000  1.0
  H  H190  1  0.19220000  0.92410000  0.50210000  1.0
  H  H191  1  0.27550000  0.82670000  0.53320000  1.0
  C  C192  1  0.54800000  0.58080000  0.95251000  1.0
  C  C193  1  0.45890000  0.59420000  0.93935000  1.0
  C  C194  1  0.40440000  0.53570000  0.92568000  1.0
  C  C195  1  0.44170000  0.46340000  0.92654000  1.0
  C  C196  1  0.53060000  0.45330000  0.94200000  1.0
  C  C197  1  0.57330000  0.37820000  0.94584000  1.0
  C  C198  1  0.52350000  0.31170000  0.94462000  1.0
  C  C199  1  0.56600000  0.24220000  0.95016000  1.0
  C  C200  1  0.65890000  0.23860000  0.95708000  1.0
  C  C201  1  0.70910000  0.30410000  0.95870000  1.0
  C  C202  1  0.66640000  0.37320000  0.95300000  1.0
  C  C203  1  0.70460000  0.16430000  0.96426000  1.0
  C  C204  1  0.30980000  0.54880000  0.91010000  1.0
  C  C205  1  0.24360000  0.49250000  0.91030000  1.0
  C  C206  1  0.15790000  0.50750000  0.89460000  1.0
  C  C207  1  0.19590000  0.62820000  0.87920000  1.0
  C  C208  1  0.28300000  0.61820000  0.89450000  1.0
  C  C209  1  0.00090000  0.86570000  0.11367000  1.0
  C  C210  1  0.07680000  0.82520000  0.13611000  1.0
  C  C211  1  0.16630000  0.84030000  0.12515000  1.0
  C  C212  1  0.23700000  0.80260000  0.14516000  1.0
  C  C213  1  0.21990000  0.74910000  0.17570000  1.0
  C  C214  1  0.12910000  0.73580000  0.18690000  1.0
  C  C215  1  0.05840000  0.77330000  0.16694000  1.0
  C  C216  1  0.29620000  0.70790000  0.19663000  1.0
  C  C217  1  0.38120000  0.70300000  0.17833000  1.0
  C  C218  1  0.45200000  0.66680000  0.19939000  1.0
  C  C219  1  0.43240000  0.63370000  0.23748000  1.0
  C  C220  1  0.34450000  0.63910000  0.25365000  1.0
  C  C221  1  0.32010000  0.60740000  0.29550000  1.0
  C  C222  1  0.38010000  0.56070000  0.31734000  1.0
  C  C223  1  0.35800000  0.53520000  0.35731000  1.0
  C  C224  1  0.27770000  0.55600000  0.37620000  1.0
  C  C225  1  0.21660000  0.60170000  0.35391000  1.0
  C  C226  1  0.23840000  0.62750000  0.31469000  1.0
  C  C227  1  0.25510000  0.53160000  0.41936000  1.0
  C  C228  1  0.54570000  0.66650000  0.18207000  1.0
  C  C229  1  0.60890000  0.61190000  0.19340000  1.0
  C  C230  1  0.69660000  0.61510000  0.17750000  1.0
  C  C231  1  0.66500000  0.71880000  0.14000000  1.0
  C  C232  1  0.57590000  0.72030000  0.15499000  1.0
  C  C233  1  0.63100000  0.93380000  0.09884000  1.0
  C  C234  1  0.57120000  0.92630000  0.13679000  1.0
  C  C235  1  0.47760000  0.93650000  0.13390000  1.0
  C  C236  1  0.42350000  0.92600000  0.16888000  1.0
  C  C237  1  0.46210000  0.90410000  0.20698000  1.0
  C  C238  1  0.55610000  0.89560000  0.20948000  1.0
  C  C239  1  0.60920000  0.90760000  0.17473000  1.0
  C  C240  1  0.40500000  0.88380000  0.24380000  1.0
  C  C241  1  0.31530000  0.90520000  0.24825000  1.0
  C  C242  1  0.26640000  0.87990000  0.28271000  1.0
  C  C243  1  0.30980000  0.83390000  0.31120000  1.0
  C  C244  1  0.40110000  0.81460000  0.30515000  1.0
  C  C245  1  0.45140000  0.76250000  0.33351000  1.0
  C  C246  1  0.42060000  0.74440000  0.37316000  1.0
  C  C247  1  0.46260000  0.68800000  0.39607000  1.0
  C  C248  1  0.53570000  0.64860000  0.37969000  1.0
  C  C249  1  0.56970000  0.66890000  0.34049000  1.0
  C  C250  1  0.52950000  0.72560000  0.31812000  1.0
  C  C251  1  0.57300000  0.58100000  0.40067000  1.0
  C  C252  1  0.16870000  0.89850000  0.28700000  1.0
  C  C253  1  0.11200000  0.90500000  0.25250000  1.0
  C  C254  1  0.02100000  0.92120000  0.25750000  1.0
  C  C255  1  0.03630000  0.92850000  0.32640000  1.0
  C  C256  1  0.12990000  0.91110000  0.32570000  1.0
  C  C257  1  0.53120000  0.10420000  0.04912000  1.0
  C  C258  1  0.76230000  0.82100000  0.02239000  1.0
  C  C259  1  0.71320000  0.75840000  0.00142000  1.0
  C  C260  1  0.64860000  0.77320000  0.97110000  1.0
  C  C261  1  0.59610000  0.71570000  0.95410000  1.0
  C  C262  1  0.60780000  0.64220000  0.96725000  1.0
  C  C263  1  0.67860000  0.62670000  0.99510000  1.0
  C  C264  1  0.72960000  0.68450000  0.01300000  1.0
  C  C265  1  0.95200000  0.08080000  0.54749000  1.0
  C  C266  1  0.04110000  0.09420000  0.56065000  1.0
  C  C267  1  0.09560000  0.03570000  0.57432000  1.0
  C  C268  1  0.05830000  0.96340000  0.57346000  1.0
  C  C269  1  0.96940000  0.95330000  0.55800000  1.0
  C  C270  1  0.92670000  0.87820000  0.55416000  1.0
  C  C271  1  0.97650000  0.81170000  0.55538000  1.0
  C  C272  1  0.93400000  0.74220000  0.54984000  1.0
  C  C273  1  0.84110000  0.73860000  0.54292000  1.0
  C  C274  1  0.79090000  0.80410000  0.54130000  1.0
  C  C275  1  0.83360000  0.87320000  0.54700000  1.0
  C  C276  1  0.79540000  0.66430000  0.53574000  1.0
  C  C277  1  0.19020000  0.04880000  0.58990000  1.0
  C  C278  1  0.25640000  0.99250000  0.58970000  1.0
  C  C279  1  0.34210000  0.00750000  0.60540000  1.0
  C  C280  1  0.30410000  0.12820000  0.62080000  1.0
  C  C281  1  0.21700000  0.11820000  0.60550000  1.0
  C  C282  1  0.49910000  0.36570000  0.38633000  1.0
  C  C283  1  0.42320000  0.32520000  0.36389000  1.0
  C  C284  1  0.33370000  0.34030000  0.37485000  1.0
  C  C285  1  0.26300000  0.30260000  0.35484000  1.0
  C  C286  1  0.28010000  0.24910000  0.32430000  1.0
  C  C287  1  0.37090000  0.23580000  0.31310000  1.0
  C  C288  1  0.44160000  0.27330000  0.33306000  1.0
  C  C289  1  0.20380000  0.20790000  0.30337000  1.0
  C  C290  1  0.11880000  0.20300000  0.32167000  1.0
  C  C291  1  0.04800000  0.16680000  0.30061000  1.0
  C  C292  1  0.06760000  0.13370000  0.26252000  1.0
  C  C293  1  0.15550000  0.13910000  0.24635000  1.0
  C  C294  1  0.17990000  0.10740000  0.20450000  1.0
  C  C295  1  0.11990000  0.06070000  0.18266000  1.0
  C  C296  1  0.14200000  0.03520000  0.14269000  1.0
  C  C297  1  0.22230000  0.05600000  0.12380000  1.0
  C  C298  1  0.28340000  0.10170000  0.14609000  1.0
  C  C299  1  0.26160000  0.12750000  0.18531000  1.0
  C  C300  1  0.24490000  0.03160000  0.08064000  1.0
  C  C301  1  0.95430000  0.16650000  0.31793000  1.0
  C  C302  1  0.89110000  0.11190000  0.30660000  1.0
  C  C303  1  0.80340000  0.11510000  0.32250000  1.0
  C  C304  1  0.83500000  0.21880000  0.36000000  1.0
  C  C305  1  0.92410000  0.22030000  0.34501000  1.0
  C  C306  1  0.86900000  0.43380000  0.40116000  1.0
  C  C307  1  0.92880000  0.42630000  0.36321000  1.0
  C  C308  1  0.02240000  0.43650000  0.36610000  1.0
  C  C309  1  0.07650000  0.42600000  0.33112000  1.0
  C  C310  1  0.03790000  0.40410000  0.29302000  1.0
  C  C311  1  0.94390000  0.39560000  0.29052000  1.0
  C  C312  1  0.89080000  0.40760000  0.32527000  1.0
  C  C313  1  0.09500000  0.38380000  0.25620000  1.0
  C  C314  1  0.18470000  0.40520000  0.25175000  1.0
  C  C315  1  0.23360000  0.37990000  0.21729000  1.0
  C  C316  1  0.19020000  0.33390000  0.18880000  1.0
  C  C317  1  0.09890000  0.31460000  0.19485000  1.0
  C  C318  1  0.04860000  0.26250000  0.16649000  1.0
  C  C319  1  0.07940000  0.24440000  0.12684000  1.0
  C  C320  1  0.03740000  0.18800000  0.10393000  1.0
  C  C321  1  0.96430000  0.14860000  0.12031000  1.0
  C  C322  1  0.93030000  0.16890000  0.15951000  1.0
  C  C323  1  0.97050000  0.22560000  0.18188000  1.0
  C  C324  1  0.92700000  0.08100000  0.09933000  1.0
  C  C325  1  0.33130000  0.39850000  0.21300000  1.0
  C  C326  1  0.38800000  0.40500000  0.24750000  1.0
  C  C327  1  0.47900000  0.42120000  0.24250000  1.0
  C  C328  1  0.46370000  0.42850000  0.17360000  1.0
  C  C329  1  0.37010000  0.41110000  0.17430000  1.0
  C  C330  1  0.96880000  0.60420000  0.45088000  1.0
  C  C331  1  0.73770000  0.32100000  0.47761000  1.0
  C  C332  1  0.78680000  0.25840000  0.49858000  1.0
  C  C333  1  0.85140000  0.27320000  0.52890000  1.0
  C  C334  1  0.90390000  0.21570000  0.54590000  1.0
  C  C335  1  0.89220000  0.14220000  0.53275000  1.0
  C  C336  1  0.82140000  0.12670000  0.50490000  1.0
  C  C337  1  0.77040000  0.18450000  0.48700000  1.0
  C  C338  1  0.45200000  0.41920000  0.04749000  1.0
  C  C339  1  0.54110000  0.40580000  0.06065000  1.0
  C  C340  1  0.59560000  0.46430000  0.07432000  1.0
  C  C341  1  0.55830000  0.53660000  0.07346000  1.0
  C  C342  1  0.46940000  0.54670000  0.05800000  1.0
  C  C343  1  0.42670000  0.62180000  0.05416000  1.0
  C  C344  1  0.47650000  0.68830000  0.05538000  1.0
  C  C345  1  0.43400000  0.75780000  0.04984000  1.0
  C  C346  1  0.34110000  0.76140000  0.04292000  1.0
  C  C347  1  0.29090000  0.69590000  0.04130000  1.0
  C  C348  1  0.33360000  0.62680000  0.04700000  1.0
  C  C349  1  0.29540000  0.83570000  0.03574000  1.0
  C  C350  1  0.69020000  0.45120000  0.08990000  1.0
  C  C351  1  0.75640000  0.50750000  0.08970000  1.0
  C  C352  1  0.84210000  0.49250000  0.10540000  1.0
  C  C353  1  0.80410000  0.37180000  0.12080000  1.0
  C  C354  1  0.71700000  0.38180000  0.10550000  1.0
  C  C355  1  0.99910000  0.13430000  0.88633000  1.0
  C  C356  1  0.92320000  0.17480000  0.86389000  1.0
  C  C357  1  0.83370000  0.15970000  0.87485000  1.0
  C  C358  1  0.76300000  0.19740000  0.85484000  1.0
  C  C359  1  0.78010000  0.25090000  0.82430000  1.0
  C  C360  1  0.87090000  0.26420000  0.81310000  1.0
  C  C361  1  0.94160000  0.22670000  0.83306000  1.0
  C  C362  1  0.70380000  0.29210000  0.80337000  1.0
  C  C363  1  0.61880000  0.29700000  0.82167000  1.0
  C  C364  1  0.54800000  0.33320000  0.80061000  1.0
  C  C365  1  0.56760000  0.36630000  0.76252000  1.0
  C  C366  1  0.65550000  0.36090000  0.74635000  1.0
  C  C367  1  0.67990000  0.39260000  0.70450000  1.0
  C  C368  1  0.61990000  0.43930000  0.68266000  1.0
  C  C369  1  0.64200000  0.46480000  0.64269000  1.0
  C  C370  1  0.72230000  0.44400000  0.62380000  1.0
  C  C371  1  0.78340000  0.39830000  0.64609000  1.0
  C  C372  1  0.76160000  0.37250000  0.68531000  1.0
  C  C373  1  0.74490000  0.46840000  0.58064000  1.0
  C  C374  1  0.45430000  0.33350000  0.81793000  1.0
  C  C375  1  0.39110000  0.38810000  0.80660000  1.0
  C  C376  1  0.30340000  0.38490000  0.82250000  1.0
  C  C377  1  0.33500000  0.28120000  0.86000000  1.0
  C  C378  1  0.42410000  0.27970000  0.84501000  1.0
  C  C379  1  0.36900000  0.06620000  0.90116000  1.0
  C  C380  1  0.42880000  0.07370000  0.86321000  1.0
  C  C381  1  0.52240000  0.06350000  0.86610000  1.0
  C  C382  1  0.57650000  0.07400000  0.83112000  1.0
  C  C383  1  0.53790000  0.09590000  0.79302000  1.0
  C  C384  1  0.44390000  0.10440000  0.79052000  1.0
  C  C385  1  0.39080000  0.09240000  0.82527000  1.0
  C  C386  1  0.59500000  0.11620000  0.75620000  1.0
  C  C387  1  0.68470000  0.09480000  0.75175000  1.0
  C  C388  1  0.73360000  0.12010000  0.71729000  1.0
  C  C389  1  0.69020000  0.16610000  0.68880000  1.0
  C  C390  1  0.59890000  0.18540000  0.69485000  1.0
  C  C391  1  0.54860000  0.23750000  0.66649000  1.0
  C  C392  1  0.57940000  0.25560000  0.62684000  1.0
  C  C393  1  0.53740000  0.31200000  0.60393000  1.0
  C  C394  1  0.46430000  0.35140000  0.62031000  1.0
  C  C395  1  0.43030000  0.33110000  0.65951000  1.0
  C  C396  1  0.47050000  0.27440000  0.68188000  1.0
  C  C397  1  0.42700000  0.41900000  0.59933000  1.0
  C  C398  1  0.83130000  0.10150000  0.71300000  1.0
  C  C399  1  0.88800000  0.09500000  0.74750000  1.0
  C  C400  1  0.97900000  0.07880000  0.74250000  1.0
  C  C401  1  0.96370000  0.07150000  0.67360000  1.0
  C  C402  1  0.87010000  0.08890000  0.67430000  1.0
  C  C403  1  0.46880000  0.89580000  0.95088000  1.0
  C  C404  1  0.23770000  0.17900000  0.97761000  1.0
  C  C405  1  0.28680000  0.24160000  0.99858000  1.0
  C  C406  1  0.35140000  0.22680000  0.02890000  1.0
  C  C407  1  0.40390000  0.28430000  0.04590000  1.0
  C  C408  1  0.39220000  0.35780000  0.03275000  1.0
  C  C409  1  0.32140000  0.37330000  0.00490000  1.0
  C  C410  1  0.27040000  0.31550000  0.98700000  1.0
  C  C411  1  0.04800000  0.91920000  0.45251000  1.0
  C  C412  1  0.95890000  0.90580000  0.43935000  1.0
  C  C413  1  0.90440000  0.96430000  0.42568000  1.0
  C  C414  1  0.94170000  0.03660000  0.42654000  1.0
  C  C415  1  0.03060000  0.04670000  0.44200000  1.0
  C  C416  1  0.07330000  0.12180000  0.44584000  1.0
  C  C417  1  0.02350000  0.18830000  0.44462000  1.0
  C  C418  1  0.06600000  0.25780000  0.45016000  1.0
  C  C419  1  0.15890000  0.26140000  0.45708000  1.0
  C  C420  1  0.20910000  0.19590000  0.45870000  1.0
  C  C421  1  0.16640000  0.12680000  0.45300000  1.0
  C  C422  1  0.20460000  0.33570000  0.46426000  1.0
  C  C423  1  0.80980000  0.95120000  0.41010000  1.0
  C  C424  1  0.74360000  0.00750000  0.41030000  1.0
  C  C425  1  0.65790000  0.99250000  0.39460000  1.0
  C  C426  1  0.69590000  0.87180000  0.37920000  1.0
  C  C427  1  0.78300000  0.88180000  0.39450000  1.0
  C  C428  1  0.50090000  0.63430000  0.61367000  1.0
  C  C429  1  0.57680000  0.67480000  0.63611000  1.0
  C  C430  1  0.66630000  0.65970000  0.62515000  1.0
  C  C431  1  0.73700000  0.69740000  0.64516000  1.0
  C  C432  1  0.71990000  0.75090000  0.67570000  1.0
  C  C433  1  0.62910000  0.76420000  0.68690000  1.0
  C  C434  1  0.55840000  0.72670000  0.66694000  1.0
  C  C435  1  0.79620000  0.79210000  0.69663000  1.0
  C  C436  1  0.88120000  0.79700000  0.67833000  1.0
  C  C437  1  0.95200000  0.83320000  0.69939000  1.0
  C  C438  1  0.93240000  0.86630000  0.73748000  1.0
  C  C439  1  0.84450000  0.86090000  0.75365000  1.0
  C  C440  1  0.82010000  0.89260000  0.79550000  1.0
  C  C441  1  0.88010000  0.93930000  0.81734000  1.0
  C  C442  1  0.85800000  0.96480000  0.85731000  1.0
  C  C443  1  0.77770000  0.94400000  0.87620000  1.0
  C  C444  1  0.71660000  0.89830000  0.85391000  1.0
  C  C445  1  0.73840000  0.87250000  0.81469000  1.0
  C  C446  1  0.75510000  0.96840000  0.91936000  1.0
  C  C447  1  0.04570000  0.83350000  0.68207000  1.0
  C  C448  1  0.10890000  0.88810000  0.69340000  1.0
  C  C449  1  0.19660000  0.88490000  0.67750000  1.0
  C  C450  1  0.16500000  0.78120000  0.64000000  1.0
  C  C451  1  0.07590000  0.77970000  0.65499000  1.0
  C  C452  1  0.13100000  0.56620000  0.59884000  1.0
  C  C453  1  0.07120000  0.57370000  0.63679000  1.0
  C  C454  1  0.97760000  0.56350000  0.63390000  1.0
  C  C455  1  0.92350000  0.57400000  0.66888000  1.0
  C  C456  1  0.96210000  0.59590000  0.70698000  1.0
  C  C457  1  0.05610000  0.60440000  0.70948000  1.0
  C  C458  1  0.10920000  0.59240000  0.67473000  1.0
  C  C459  1  0.90500000  0.61620000  0.74380000  1.0
  C  C460  1  0.81530000  0.59480000  0.74825000  1.0
  C  C461  1  0.76640000  0.62010000  0.78271000  1.0
  C  C462  1  0.80980000  0.66610000  0.81120000  1.0
  C  C463  1  0.90110000  0.68540000  0.80515000  1.0
  C  C464  1  0.95140000  0.73750000  0.83351000  1.0
  C  C465  1  0.92060000  0.75560000  0.87316000  1.0
  C  C466  1  0.96260000  0.81200000  0.89607000  1.0
  C  C467  1  0.03570000  0.85140000  0.87969000  1.0
  C  C468  1  0.06970000  0.83110000  0.84049000  1.0
  C  C469  1  0.02950000  0.77440000  0.81812000  1.0
  C  C470  1  0.07300000  0.91900000  0.90067000  1.0
  C  C471  1  0.66870000  0.60150000  0.78700000  1.0
  C  C472  1  0.61200000  0.59500000  0.75250000  1.0
  C  C473  1  0.52100000  0.57880000  0.75750000  1.0
  C  C474  1  0.53630000  0.57150000  0.82640000  1.0
  C  C475  1  0.62990000  0.58890000  0.82570000  1.0
  C  C476  1  0.03120000  0.39580000  0.54912000  1.0
  C  C477  1  0.26230000  0.67900000  0.52239000  1.0
  C  C478  1  0.21320000  0.74160000  0.50142000  1.0
  C  C479  1  0.14860000  0.72680000  0.47110000  1.0
  C  C480  1  0.09610000  0.78430000  0.45410000  1.0
  C  C481  1  0.10780000  0.85780000  0.46725000  1.0
  C  C482  1  0.17860000  0.87330000  0.49510000  1.0
  C  C483  1  0.22960000  0.81550000  0.51300000  1.0
  N  N484  1  0.13170000  0.57330000  0.87890000  1.0
  N  N485  1  0.58260000  0.51160000  0.95425000  1.0
  N  N486  1  0.72440000  0.66830000  0.15110000  1.0
  N  N487  1  0.27680000  0.67580000  0.23374000  1.0
  N  N488  1  0.98190000  0.93390000  0.29420000  1.0
  N  N489  1  0.44760000  0.83950000  0.27186000  1.0
  N  N490  1  0.36830000  0.07330000  0.62110000  1.0
  N  N491  1  0.91740000  0.01160000  0.54575000  1.0
  N  N492  1  0.77560000  0.16830000  0.34890000  1.0
  N  N493  1  0.22320000  0.17580000  0.26626000  1.0
  N  N494  1  0.51810000  0.43390000  0.20580000  1.0
  N  N495  1  0.05240000  0.33950000  0.22814000  1.0
  N  N496  1  0.86830000  0.42670000  0.12110000  1.0
  N  N497  1  0.41740000  0.48840000  0.04575000  1.0
  N  N498  1  0.27560000  0.33170000  0.84890000  1.0
  N  N499  1  0.72320000  0.32420000  0.76626000  1.0
  N  N500  1  0.01810000  0.06610000  0.70580000  1.0
  N  N501  1  0.55240000  0.16050000  0.72814000  1.0
  N  N502  1  0.63170000  0.92670000  0.37890000  1.0
  N  N503  1  0.08260000  0.98840000  0.45425000  1.0
  N  N504  1  0.22440000  0.83170000  0.65110000  1.0
  N  N505  1  0.77680000  0.82420000  0.73374000  1.0
  N  N506  1  0.48190000  0.56610000  0.79420000  1.0
  N  N507  1  0.94760000  0.66050000  0.77186000  1.0
  O  O508  1  0.65580000  0.10669000  0.96238000  1.0
  O  O509  1  0.78880000  0.16432000  0.97187000  1.0
  O  O510  1  0.01800000  0.89907000  0.07915000  1.0
  O  O511  1  0.92180000  0.86650000  0.12837000  1.0
  O  O512  1  0.17690000  0.54672000  0.43344000  1.0
  O  O513  1  0.31580000  0.49743000  0.44055000  1.0
  O  O514  1  0.59180000  0.94440000  0.06423000  1.0
  O  O515  1  0.71540000  0.92720000  0.10423000  1.0
  O  O516  1  0.62500000  0.53770000  0.38100000  1.0
  O  O517  1  0.54840000  0.56562000  0.43810000  1.0
  O  O518  1  0.49370000  0.06646000  0.02047000  1.0
  O  O519  1  0.61430000  0.10580000  0.05431000  1.0
  O  O520  1  0.77970000  0.03735000  0.03220000  1.0
  O  O521  1  0.93180000  0.94659000  0.00600000  1.0
  O  O522  1  0.74270000  0.88857000  0.01343000  1.0
  O  O523  1  0.82380000  0.80730000  0.04957000  1.0
  O  O524  1  0.84420000  0.60669000  0.53762000  1.0
  O  O525  1  0.71120000  0.66432000  0.52813000  1.0
  O  O526  1  0.48200000  0.39907000  0.42085000  1.0
  O  O527  1  0.57820000  0.36650000  0.37163000  1.0
  O  O528  1  0.32310000  0.04672000  0.06656000  1.0
  O  O529  1  0.18420000  0.99743000  0.05945000  1.0
  O  O530  1  0.90820000  0.44440000  0.43577000  1.0
  O  O531  1  0.78460000  0.42720000  0.39577000  1.0
  O  O532  1  0.87500000  0.03770000  0.11900000  1.0
  O  O533  1  0.95160000  0.06562000  0.06190000  1.0
  O  O534  1  0.00630000  0.56646000  0.47953000  1.0
  O  O535  1  0.88570000  0.60580000  0.44569000  1.0
  O  O536  1  0.72030000  0.53735000  0.46780000  1.0
  O  O537  1  0.56820000  0.44659000  0.49400000  1.0
  O  O538  1  0.75730000  0.38857000  0.48657000  1.0
  O  O539  1  0.67620000  0.30730000  0.45043000  1.0
  O  O540  1  0.34420000  0.89331000  0.03762000  1.0
  O  O541  1  0.21120000  0.83568000  0.02813000  1.0
  O  O542  1  0.98200000  0.10093000  0.92085000  1.0
  O  O543  1  0.07820000  0.13350000  0.87163000  1.0
  O  O544  1  0.82310000  0.45328000  0.56656000  1.0
  O  O545  1  0.68420000  0.50257000  0.55945000  1.0
  O  O546  1  0.40820000  0.05560000  0.93577000  1.0
  O  O547  1  0.28460000  0.07280000  0.89577000  1.0
  O  O548  1  0.37500000  0.46230000  0.61900000  1.0
  O  O549  1  0.45160000  0.43438000  0.56190000  1.0
  O  O550  1  0.50630000  0.93354000  0.97953000  1.0
  O  O551  1  0.38570000  0.89420000  0.94569000  1.0
  O  O552  1  0.22030000  0.96265000  0.96780000  1.0
  O  O553  1  0.06820000  0.05341000  0.99400000  1.0
  O  O554  1  0.25730000  0.11143000  0.98657000  1.0
  O  O555  1  0.17620000  0.19270000  0.95043000  1.0
  O  O556  1  0.15580000  0.39331000  0.46238000  1.0
  O  O557  1  0.28880000  0.33568000  0.47187000  1.0
  O  O558  1  0.51800000  0.60093000  0.57915000  1.0
  O  O559  1  0.42180000  0.63350000  0.62837000  1.0
  O  O560  1  0.67690000  0.95328000  0.93344000  1.0
  O  O561  1  0.81580000  0.00257000  0.94055000  1.0
  O  O562  1  0.09180000  0.55560000  0.56423000  1.0
  O  O563  1  0.21540000  0.57280000  0.60423000  1.0
  O  O564  1  0.12500000  0.96230000  0.88100000  1.0
  O  O565  1  0.04840000  0.93438000  0.93810000  1.0
  O  O566  1  0.99370000  0.43354000  0.52047000  1.0
  O  O567  1  0.11430000  0.39420000  0.55431000  1.0
  O  O568  1  0.27970000  0.46265000  0.53220000  1.0
  O  O569  1  0.43180000  0.55341000  0.50600000  1.0
  O  O570  1  0.24270000  0.61143000  0.51343000  1.0
  O  O571  1  0.32380000  0.69270000  0.54957000  1.0
