# generated using pymatgen
data_AgH8(CN)2
_symmetry_space_group_name_H-M   'P 1'
_cell_length_a   10.42550000
_cell_length_b   10.53010000
_cell_length_c   6.29430000
_cell_angle_alpha   90.00000000
_cell_angle_beta   115.13500000
_cell_angle_gamma   90.00000000
_symmetry_Int_Tables_number   1
_chemical_formula_structural   AgH8(CN)2
_chemical_formula_sum   'Ag4 H32 C8 N8'
_cell_volume   625.56710706
_cell_formula_units_Z   4
loop_
 _symmetry_equiv_pos_site_id
 _symmetry_equiv_pos_as_xyz
  1  'x, y, z'
loop_
 _atom_site_type_symbol
 _atom_site_label
 _atom_site_symmetry_multiplicity
 _atom_site_fract_x
 _atom_site_fract_y
 _atom_site_fract_z
 _atom_site_occupancy
  Ag  Ag0  1  0.50000000  0.00000000  0.50000000  1.0
  Ag  Ag1  1  0.00000000  0.50000000  0.50000000  1.0
  Ag  Ag2  1  0.50000000  0.00000000  0.00000000  1.0
  Ag  Ag3  1  0.00000000  0.50000000  0.00000000  1.0
  H  H4  1  0.39740000  0.26510000  0.57670000  1.0
  H  H5  1  0.32910000  0.17170000  0.69350000  1.0
  H  H6  1  0.29810000  0.14640000  0.24310000  1.0
  H  H7  1  0.23860000  0.05880000  0.35580000  1.0
  H  H8  1  0.89740000  0.76510000  0.57670000  1.0
  H  H9  1  0.82910000  0.67170000  0.69350000  1.0
  H  H10  1  0.79810000  0.64640000  0.24310000  1.0
  H  H11  1  0.73860000  0.55880000  0.35580000  1.0
  H  H12  1  0.60260000  0.26510000  0.92330000  1.0
  H  H13  1  0.67090000  0.17170000  0.80650000  1.0
  H  H14  1  0.70190000  0.14640000  0.25690000  1.0
  H  H15  1  0.76140000  0.05880000  0.14420000  1.0
  H  H16  1  0.10260000  0.76510000  0.92330000  1.0
  H  H17  1  0.17090000  0.67170000  0.80650000  1.0
  H  H18  1  0.20190000  0.64640000  0.25690000  1.0
  H  H19  1  0.26140000  0.55880000  0.14420000  1.0
  H  H20  1  0.60260000  0.73490000  0.42330000  1.0
  H  H21  1  0.67090000  0.82830000  0.30650000  1.0
  H  H22  1  0.70190000  0.85360000  0.75690000  1.0
  H  H23  1  0.76140000  0.94120000  0.64420000  1.0
  H  H24  1  0.10260000  0.23490000  0.42330000  1.0
  H  H25  1  0.17090000  0.32830000  0.30650000  1.0
  H  H26  1  0.20190000  0.35360000  0.75690000  1.0
  H  H27  1  0.26140000  0.44120000  0.64420000  1.0
  H  H28  1  0.39740000  0.73490000  0.07670000  1.0
  H  H29  1  0.32910000  0.82830000  0.19350000  1.0
  H  H30  1  0.29810000  0.85360000  0.74310000  1.0
  H  H31  1  0.23860000  0.94120000  0.85580000  1.0
  H  H32  1  0.89740000  0.23490000  0.07670000  1.0
  H  H33  1  0.82910000  0.32830000  0.19350000  1.0
  H  H34  1  0.79810000  0.35360000  0.74310000  1.0
  H  H35  1  0.73860000  0.44120000  0.85580000  1.0
  C  C36  1  0.31660000  0.21040000  0.54610000  1.0
  C  C37  1  0.81660000  0.71040000  0.54610000  1.0
  C  C38  1  0.68340000  0.21040000  0.95390000  1.0
  C  C39  1  0.18340000  0.71040000  0.95390000  1.0
  C  C40  1  0.68340000  0.78960000  0.45390000  1.0
  C  C41  1  0.18340000  0.28960000  0.45390000  1.0
  C  C42  1  0.31660000  0.78960000  0.04610000  1.0
  C  C43  1  0.81660000  0.28960000  0.04610000  1.0
  N  N44  1  0.31250000  0.11040000  0.38110000  1.0
  N  N45  1  0.81250000  0.61040000  0.38110000  1.0
  N  N46  1  0.68750000  0.11040000  0.11890000  1.0
  N  N47  1  0.18750000  0.61040000  0.11890000  1.0
  N  N48  1  0.68750000  0.88960000  0.61890000  1.0
  N  N49  1  0.18750000  0.38960000  0.61890000  1.0
  N  N50  1  0.31250000  0.88960000  0.88110000  1.0
  N  N51  1  0.81250000  0.38960000  0.88110000  1.0
