# generated using pymatgen
data_Zn2H13C24N2O9
_symmetry_space_group_name_H-M   'P 1'
_cell_length_a   13.87000000
_cell_length_b   19.02300000
_cell_length_c   19.23800000
_cell_angle_alpha   90.00000000
_cell_angle_beta   90.00000000
_cell_angle_gamma   90.00000000
_symmetry_Int_Tables_number   1
_chemical_formula_structural   Zn2H13C24N2O9
_chemical_formula_sum   'Zn16 H104 C192 N16 O72'
_cell_volume   5075.92725438
_cell_formula_units_Z   8
loop_
 _symmetry_equiv_pos_site_id
 _symmetry_equiv_pos_as_xyz
  1  'x, y, z'
loop_
 _atom_site_type_symbol
 _atom_site_label
 _atom_site_symmetry_multiplicity
 _atom_site_fract_x
 _atom_site_fract_y
 _atom_site_fract_z
 _atom_site_occupancy
  Zn  Zn0  1  0.40436000  0.48379000  0.95568000  1.0
  Zn  Zn1  1  0.59564000  0.98379000  0.54432000  1.0
  Zn  Zn2  1  0.36452000  0.60322000  0.06744000  1.0
  Zn  Zn3  1  0.63548000  0.10322000  0.43256000  1.0
  Zn  Zn4  1  0.36452000  0.89678000  0.56744000  1.0
  Zn  Zn5  1  0.59564000  0.51621000  0.04432000  1.0
  Zn  Zn6  1  0.63548000  0.39678000  0.93256000  1.0
  Zn  Zn7  1  0.40436000  0.01621000  0.45568000  1.0
  Zn  Zn8  1  0.86452000  0.60322000  0.43256000  1.0
  Zn  Zn9  1  0.90436000  0.01621000  0.04432000  1.0
  Zn  Zn10  1  0.09564000  0.51621000  0.45568000  1.0
  Zn  Zn11  1  0.13548000  0.39678000  0.56744000  1.0
  Zn  Zn12  1  0.09564000  0.98379000  0.95568000  1.0
  Zn  Zn13  1  0.90436000  0.48379000  0.54432000  1.0
  Zn  Zn14  1  0.86452000  0.89678000  0.93256000  1.0
  Zn  Zn15  1  0.13548000  0.10322000  0.06744000  1.0
  H  H16  1  0.62270000  0.02360000  0.70550000  1.0
  H  H17  1  0.62370000  0.13190000  0.15640000  1.0
  H  H18  1  0.41130000  0.78170000  0.20050000  1.0
  H  H19  1  0.34660000  0.17970000  0.98830000  1.0
  H  H20  1  0.38350000  0.36660000  0.07620000  1.0
  H  H21  1  0.42510000  0.01620000  0.59070000  1.0
  H  H22  1  0.42510000  0.48380000  0.09070000  1.0
  H  H23  1  0.65160000  0.64980000  0.31870000  1.0
  H  H24  1  0.65340000  0.67970000  0.51170000  1.0
  H  H25  1  0.95140000  0.09060000  0.42920000  1.0
  H  H26  1  0.88820000  0.56780000  0.05680000  1.0
  H  H27  1  0.58870000  0.28170000  0.29950000  1.0
  H  H28  1  0.35560000  0.47080000  0.68790000  1.0
  H  H29  1  0.34840000  0.35020000  0.68130000  1.0
  H  H30  1  0.37730000  0.52360000  0.79450000  1.0
  H  H31  1  0.37630000  0.63190000  0.34360000  1.0
  H  H32  1  0.35560000  0.02920000  0.18790000  1.0
  H  H33  1  0.95140000  0.40940000  0.92920000  1.0
  H  H34  1  0.57670000  0.13560000  0.71160000  1.0
  H  H35  1  0.11180000  0.43220000  0.94320000  1.0
  H  H36  1  0.65340000  0.82030000  0.01170000  1.0
  H  H37  1  0.34660000  0.32030000  0.48830000  1.0
  H  H38  1  0.41130000  0.71830000  0.70050000  1.0
  H  H39  1  0.35490000  0.25220000  0.58830000  1.0
  H  H40  1  0.37630000  0.86810000  0.84360000  1.0
  H  H41  1  0.57490000  0.98380000  0.40930000  1.0
  H  H42  1  0.37730000  0.97640000  0.29450000  1.0
  H  H43  1  0.42330000  0.63560000  0.78840000  1.0
  H  H44  1  0.61650000  0.86660000  0.42380000  1.0
  H  H45  1  0.58870000  0.21830000  0.79950000  1.0
  H  H46  1  0.88820000  0.93220000  0.55680000  1.0
  H  H47  1  0.64440000  0.97080000  0.81210000  1.0
  H  H48  1  0.62370000  0.36810000  0.65640000  1.0
  H  H49  1  0.38070000  0.78570000  0.93130000  1.0
  H  H50  1  0.38350000  0.13340000  0.57620000  1.0
  H  H51  1  0.61930000  0.28570000  0.56870000  1.0
  H  H52  1  0.65160000  0.85020000  0.81870000  1.0
  H  H53  1  0.11180000  0.06780000  0.44320000  1.0
  H  H54  1  0.57490000  0.51620000  0.90930000  1.0
  H  H55  1  0.04860000  0.90940000  0.57080000  1.0
  H  H56  1  0.35490000  0.24780000  0.08830000  1.0
  H  H57  1  0.61930000  0.21430000  0.06870000  1.0
  H  H58  1  0.34840000  0.14980000  0.18130000  1.0
  H  H59  1  0.04860000  0.59060000  0.07080000  1.0
  H  H60  1  0.38070000  0.71430000  0.43130000  1.0
  H  H61  1  0.42330000  0.86440000  0.28840000  1.0
  H  H62  1  0.61650000  0.63340000  0.92380000  1.0
  H  H63  1  0.64440000  0.52920000  0.31210000  1.0
  H  H64  1  0.62270000  0.47640000  0.20550000  1.0
  H  H65  1  0.64510000  0.74780000  0.41170000  1.0
  H  H66  1  0.64510000  0.75220000  0.91170000  1.0
  H  H67  1  0.57670000  0.36440000  0.21160000  1.0
  H  H68  1  0.85490000  0.24780000  0.41170000  1.0
  H  H69  1  0.07490000  0.51620000  0.59070000  1.0
  H  H70  1  0.92510000  0.01620000  0.90930000  1.0
  H  H71  1  0.15340000  0.82030000  0.48830000  1.0
  H  H72  1  0.85490000  0.25220000  0.91170000  1.0
  H  H73  1  0.91130000  0.78170000  0.29950000  1.0
  H  H74  1  0.61180000  0.43220000  0.55680000  1.0
  H  H75  1  0.14510000  0.74780000  0.08830000  1.0
  H  H76  1  0.84660000  0.32030000  0.01170000  1.0
  H  H77  1  0.15160000  0.85020000  0.68130000  1.0
  H  H78  1  0.08870000  0.28170000  0.20050000  1.0
  H  H79  1  0.15160000  0.64980000  0.18130000  1.0
  H  H80  1  0.11930000  0.21430000  0.43130000  1.0
  H  H81  1  0.87730000  0.97640000  0.20550000  1.0
  H  H82  1  0.84840000  0.14980000  0.31870000  1.0
  H  H83  1  0.84840000  0.35020000  0.81870000  1.0
  H  H84  1  0.12370000  0.36810000  0.84360000  1.0
  H  H85  1  0.11650000  0.63340000  0.57620000  1.0
  H  H86  1  0.88350000  0.36660000  0.42380000  1.0
  H  H87  1  0.08870000  0.21830000  0.70050000  1.0
  H  H88  1  0.38820000  0.56780000  0.44320000  1.0
  H  H89  1  0.54860000  0.90940000  0.92920000  1.0
  H  H90  1  0.92330000  0.86440000  0.21160000  1.0
  H  H91  1  0.15340000  0.67970000  0.98830000  1.0
  H  H92  1  0.88070000  0.78570000  0.56870000  1.0
  H  H93  1  0.54860000  0.59060000  0.42920000  1.0
  H  H94  1  0.07490000  0.98380000  0.09070000  1.0
  H  H95  1  0.12370000  0.13190000  0.34360000  1.0
  H  H96  1  0.14440000  0.97080000  0.68790000  1.0
  H  H97  1  0.07670000  0.13560000  0.78840000  1.0
  H  H98  1  0.11650000  0.86660000  0.07620000  1.0
  H  H99  1  0.45140000  0.09060000  0.07080000  1.0
  H  H100  1  0.07670000  0.36440000  0.28840000  1.0
  H  H101  1  0.12270000  0.47640000  0.29450000  1.0
  H  H102  1  0.38820000  0.93220000  0.94320000  1.0
  H  H103  1  0.14440000  0.52920000  0.18790000  1.0
  H  H104  1  0.12270000  0.02360000  0.79450000  1.0
  H  H105  1  0.88070000  0.71430000  0.06870000  1.0
  H  H106  1  0.45140000  0.40940000  0.57080000  1.0
  H  H107  1  0.85560000  0.02920000  0.31210000  1.0
  H  H108  1  0.92330000  0.63560000  0.71160000  1.0
  H  H109  1  0.87630000  0.63190000  0.15640000  1.0
  H  H110  1  0.61180000  0.06780000  0.05680000  1.0
  H  H111  1  0.87630000  0.86810000  0.65640000  1.0
  H  H112  1  0.84660000  0.17970000  0.51170000  1.0
  H  H113  1  0.91130000  0.71830000  0.79950000  1.0
  H  H114  1  0.85560000  0.47080000  0.81210000  1.0
  H  H115  1  0.11930000  0.28570000  0.93130000  1.0
  H  H116  1  0.88350000  0.13340000  0.92380000  1.0
  H  H117  1  0.14510000  0.75220000  0.58830000  1.0
  H  H118  1  0.92510000  0.48380000  0.40930000  1.0
  H  H119  1  0.87730000  0.52360000  0.70550000  1.0
  C  C120  1  0.93330000  0.95980000  0.53370000  1.0
  C  C121  1  0.93330000  0.54020000  0.03370000  1.0
  C  C122  1  0.37350000  0.02520000  0.29260000  1.0
  C  C123  1  0.39220000  0.69810000  0.26270000  1.0
  C  C124  1  0.60170000  0.20140000  0.63080000  1.0
  C  C125  1  0.62270000  0.83920000  0.46350000  1.0
  C  C126  1  0.37350000  0.47480000  0.79260000  1.0
  C  C127  1  0.60170000  0.29860000  0.13080000  1.0
  C  C128  1  0.06670000  0.04020000  0.46630000  1.0
  C  C129  1  0.40570000  0.76780000  0.24670000  1.0
  C  C130  1  0.60780000  0.19810000  0.23730000  1.0
  C  C131  1  0.36310000  0.25880000  0.92020000  1.0
  C  C132  1  0.35580000  0.12750000  0.22410000  1.0
  C  C133  1  0.64370000  0.71640000  0.64590000  1.0
  C  C134  1  0.63800000  0.83280000  0.71420000  1.0
  C  C135  1  0.39830000  0.79860000  0.36920000  1.0
  C  C136  1  0.09780000  0.98560000  0.50840000  1.0
  C  C137  1  0.63860000  0.76800000  0.45550000  1.0
  C  C138  1  0.58890000  0.18230000  0.70050000  1.0
  C  C139  1  0.20310000  0.97110000  0.51510000  1.0
  C  C140  1  0.61610000  0.32090000  0.66770000  1.0
  C  C141  1  0.60290000  0.35340000  0.07420000  1.0
  C  C142  1  0.06670000  0.45980000  0.96630000  1.0
  C  C143  1  0.60780000  0.30190000  0.73730000  1.0
  C  C144  1  0.63930000  0.94350000  0.77220000  1.0
  C  C145  1  0.35370000  0.25530000  0.78380000  1.0
  C  C146  1  0.62650000  0.97480000  0.70740000  1.0
  C  C147  1  0.39710000  0.64660000  0.92580000  1.0
  C  C148  1  0.61330000  0.27160000  0.61470000  1.0
  C  C149  1  0.35370000  0.24470000  0.28380000  1.0
  C  C150  1  0.35580000  0.37250000  0.72410000  1.0
  C  C151  1  0.02940000  0.55400000  0.04200000  1.0
  C  C152  1  0.35560000  0.27200000  0.48490000  1.0
  C  C153  1  0.36200000  0.33280000  0.78580000  1.0
  C  C154  1  0.60290000  0.14660000  0.57420000  1.0
  C  C155  1  0.79690000  0.02890000  0.48490000  1.0
  C  C156  1  0.38390000  0.67910000  0.33230000  1.0
  C  C157  1  0.38670000  0.77160000  0.88530000  1.0
  C  C158  1  0.35560000  0.22800000  0.98490000  1.0
  C  C159  1  0.37730000  0.33920000  0.03650000  1.0
  C  C160  1  0.90220000  0.48560000  0.99160000  1.0
  C  C161  1  0.02940000  0.94600000  0.54200000  1.0
  C  C162  1  0.38600000  0.85560000  0.70510000  1.0
  C  C163  1  0.62580000  0.86890000  0.65110000  1.0
  C  C164  1  0.64630000  0.74470000  0.21620000  1.0
  C  C165  1  0.61400000  0.14440000  0.29490000  1.0
  C  C166  1  0.36200000  0.16720000  0.28580000  1.0
  C  C167  1  0.62650000  0.52520000  0.20740000  1.0
  C  C168  1  0.39710000  0.85340000  0.42580000  1.0
  C  C169  1  0.63930000  0.55650000  0.27220000  1.0
  C  C170  1  0.63690000  0.75880000  0.57980000  1.0
  C  C171  1  0.37420000  0.36890000  0.84890000  1.0
  C  C172  1  0.36070000  0.05650000  0.22780000  1.0
  C  C173  1  0.64440000  0.72800000  0.51510000  1.0
  C  C174  1  0.35630000  0.28360000  0.35410000  1.0
  C  C175  1  0.59430000  0.23220000  0.75330000  1.0
  C  C176  1  0.09780000  0.51440000  0.00840000  1.0
  C  C177  1  0.97060000  0.05400000  0.45800000  1.0
  C  C178  1  0.90220000  0.01440000  0.49160000  1.0
  C  C179  1  0.38390000  0.82090000  0.83230000  1.0
  C  C180  1  0.62270000  0.66080000  0.96350000  1.0
  C  C181  1  0.63860000  0.73200000  0.95550000  1.0
  C  C182  1  0.64420000  0.87250000  0.77590000  1.0
  C  C183  1  0.63800000  0.66720000  0.21420000  1.0
  C  C184  1  0.20310000  0.52890000  0.01510000  1.0
  C  C185  1  0.79690000  0.47110000  0.98490000  1.0
  C  C186  1  0.36070000  0.44350000  0.72780000  1.0
  C  C187  1  0.61330000  0.22840000  0.11470000  1.0
  C  C188  1  0.37590000  0.33140000  0.91610000  1.0
  C  C189  1  0.36140000  0.26800000  0.04450000  1.0
  C  C190  1  0.38670000  0.72840000  0.38530000  1.0
  C  C191  1  0.64440000  0.77200000  0.01510000  1.0
  C  C192  1  0.37420000  0.13110000  0.34890000  1.0
  C  C193  1  0.63690000  0.74120000  0.07980000  1.0
  C  C194  1  0.58890000  0.31770000  0.20050000  1.0
  C  C195  1  0.62410000  0.66860000  0.08390000  1.0
  C  C196  1  0.37730000  0.16080000  0.53650000  1.0
  C  C197  1  0.61610000  0.17910000  0.16770000  1.0
  C  C198  1  0.39830000  0.70140000  0.86920000  1.0
  C  C199  1  0.62410000  0.83140000  0.58390000  1.0
  C  C200  1  0.39220000  0.80190000  0.76270000  1.0
  C  C201  1  0.97060000  0.44600000  0.95800000  1.0
  C  C202  1  0.61400000  0.35560000  0.79490000  1.0
  C  C203  1  0.64630000  0.75530000  0.71620000  1.0
  C  C204  1  0.37590000  0.16860000  0.41610000  1.0
  C  C205  1  0.36310000  0.24120000  0.42020000  1.0
  C  C206  1  0.38600000  0.64440000  0.20510000  1.0
  C  C207  1  0.64420000  0.62750000  0.27590000  1.0
  C  C208  1  0.62580000  0.63110000  0.15110000  1.0
  C  C209  1  0.64370000  0.78360000  0.14590000  1.0
  C  C210  1  0.40570000  0.73220000  0.74670000  1.0
  C  C211  1  0.41110000  0.81770000  0.29950000  1.0
  C  C212  1  0.36140000  0.23200000  0.54450000  1.0
  C  C213  1  0.59430000  0.26780000  0.25330000  1.0
  C  C214  1  0.35630000  0.21640000  0.85410000  1.0
  C  C215  1  0.41110000  0.68230000  0.79950000  1.0
  C  C216  1  0.87590000  0.16860000  0.08390000  1.0
  C  C217  1  0.87350000  0.47480000  0.70740000  1.0
  C  C218  1  0.13690000  0.75880000  0.92020000  1.0
  C  C219  1  0.40220000  0.48560000  0.50840000  1.0
  C  C220  1  0.12580000  0.86890000  0.84890000  1.0
  C  C221  1  0.52940000  0.55400000  0.45800000  1.0
  C  C222  1  0.85630000  0.21640000  0.64590000  1.0
  C  C223  1  0.08890000  0.18230000  0.79950000  1.0
  C  C224  1  0.12650000  0.52520000  0.29260000  1.0
  C  C225  1  0.11330000  0.27160000  0.88530000  1.0
  C  C226  1  0.88670000  0.77160000  0.61470000  1.0
  C  C227  1  0.12270000  0.66080000  0.53650000  1.0
  C  C228  1  0.85370000  0.24470000  0.21620000  1.0
  C  C229  1  0.29690000  0.02890000  0.01510000  1.0
  C  C230  1  0.13690000  0.74120000  0.42020000  1.0
  C  C231  1  0.86140000  0.26800000  0.45550000  1.0
  C  C232  1  0.86070000  0.05650000  0.27220000  1.0
  C  C233  1  0.43330000  0.54020000  0.46630000  1.0
  C  C234  1  0.89710000  0.64660000  0.57420000  1.0
  C  C235  1  0.43330000  0.95980000  0.96630000  1.0
  C  C236  1  0.12410000  0.66860000  0.41610000  1.0
  C  C237  1  0.88600000  0.85560000  0.79490000  1.0
  C  C238  1  0.10780000  0.30190000  0.76270000  1.0
  C  C239  1  0.85580000  0.12750000  0.27590000  1.0
  C  C240  1  0.12270000  0.83920000  0.03650000  1.0
  C  C241  1  0.14370000  0.78360000  0.35410000  1.0
  C  C242  1  0.56670000  0.04020000  0.03370000  1.0
  C  C243  1  0.90570000  0.73220000  0.75330000  1.0
  C  C244  1  0.13860000  0.73200000  0.54450000  1.0
  C  C245  1  0.08890000  0.31770000  0.29950000  1.0
  C  C246  1  0.91110000  0.81770000  0.20050000  1.0
  C  C247  1  0.85370000  0.25530000  0.71620000  1.0
  C  C248  1  0.89710000  0.85340000  0.07420000  1.0
  C  C249  1  0.12650000  0.97480000  0.79260000  1.0
  C  C250  1  0.12410000  0.83140000  0.91610000  1.0
  C  C251  1  0.88390000  0.82090000  0.66770000  1.0
  C  C252  1  0.14630000  0.74470000  0.28380000  1.0
  C  C253  1  0.10170000  0.29860000  0.36920000  1.0
  C  C254  1  0.13800000  0.83280000  0.78580000  1.0
  C  C255  1  0.86200000  0.33280000  0.71420000  1.0
  C  C256  1  0.40220000  0.01440000  0.00840000  1.0
  C  C257  1  0.91110000  0.68230000  0.70050000  1.0
  C  C258  1  0.11610000  0.32090000  0.83230000  1.0
  C  C259  1  0.13930000  0.55650000  0.22780000  1.0
  C  C260  1  0.88600000  0.64440000  0.29490000  1.0
  C  C261  1  0.14630000  0.75530000  0.78380000  1.0
  C  C262  1  0.10170000  0.20140000  0.86920000  1.0
  C  C263  1  0.87730000  0.16080000  0.96350000  1.0
  C  C264  1  0.70310000  0.97110000  0.98490000  1.0
  C  C265  1  0.29690000  0.47110000  0.51510000  1.0
  C  C266  1  0.13930000  0.94350000  0.72780000  1.0
  C  C267  1  0.87420000  0.36890000  0.65110000  1.0
  C  C268  1  0.12580000  0.63110000  0.34890000  1.0
  C  C269  1  0.89830000  0.79860000  0.13080000  1.0
  C  C270  1  0.86070000  0.44350000  0.77220000  1.0
  C  C271  1  0.14440000  0.72800000  0.98490000  1.0
  C  C272  1  0.11610000  0.17910000  0.33230000  1.0
  C  C273  1  0.47060000  0.05400000  0.04200000  1.0
  C  C274  1  0.86140000  0.23200000  0.95550000  1.0
  C  C275  1  0.85560000  0.22800000  0.51510000  1.0
  C  C276  1  0.87730000  0.33920000  0.46350000  1.0
  C  C277  1  0.11400000  0.35560000  0.70510000  1.0
  C  C278  1  0.14420000  0.87250000  0.72410000  1.0
  C  C279  1  0.85580000  0.37250000  0.77590000  1.0
  C  C280  1  0.14420000  0.62750000  0.22410000  1.0
  C  C281  1  0.14440000  0.77200000  0.48490000  1.0
  C  C282  1  0.10290000  0.14660000  0.92580000  1.0
  C  C283  1  0.52940000  0.94600000  0.95800000  1.0
  C  C284  1  0.90570000  0.76780000  0.25330000  1.0
  C  C285  1  0.86310000  0.25880000  0.57980000  1.0
  C  C286  1  0.88670000  0.72840000  0.11470000  1.0
  C  C287  1  0.89220000  0.80190000  0.73730000  1.0
  C  C288  1  0.59780000  0.98560000  0.99160000  1.0
  C  C289  1  0.87350000  0.02520000  0.20740000  1.0
  C  C290  1  0.09430000  0.26780000  0.24670000  1.0
  C  C291  1  0.89830000  0.70140000  0.63080000  1.0
  C  C292  1  0.87590000  0.33140000  0.58390000  1.0
  C  C293  1  0.70310000  0.52890000  0.48490000  1.0
  C  C294  1  0.11330000  0.22840000  0.38530000  1.0
  C  C295  1  0.86310000  0.24120000  0.07980000  1.0
  C  C296  1  0.85630000  0.28360000  0.14590000  1.0
  C  C297  1  0.89220000  0.69810000  0.23730000  1.0
  C  C298  1  0.87420000  0.13110000  0.15110000  1.0
  C  C299  1  0.86200000  0.16720000  0.21420000  1.0
  C  C300  1  0.14370000  0.71640000  0.85410000  1.0
  C  C301  1  0.10290000  0.35340000  0.42580000  1.0
  C  C302  1  0.13800000  0.66720000  0.28580000  1.0
  C  C303  1  0.47060000  0.44600000  0.54200000  1.0
  C  C304  1  0.11400000  0.14440000  0.20510000  1.0
  C  C305  1  0.85560000  0.27200000  0.01510000  1.0
  C  C306  1  0.10780000  0.19810000  0.26270000  1.0
  C  C307  1  0.59780000  0.51440000  0.49160000  1.0
  C  C308  1  0.88390000  0.67910000  0.16770000  1.0
  C  C309  1  0.09430000  0.23220000  0.74670000  1.0
  C  C310  1  0.13860000  0.76800000  0.04450000  1.0
  C  C311  1  0.56670000  0.45980000  0.53370000  1.0
  N  N312  1  0.38430000  0.37090000  0.97460000  1.0
  N  N313  1  0.38430000  0.12910000  0.47460000  1.0
  N  N314  1  0.61570000  0.87090000  0.52540000  1.0
  N  N315  1  0.61940000  0.56100000  0.14750000  1.0
  N  N316  1  0.38060000  0.06100000  0.35250000  1.0
  N  N317  1  0.61940000  0.93900000  0.64750000  1.0
  N  N318  1  0.61570000  0.62910000  0.02540000  1.0
  N  N319  1  0.38060000  0.43900000  0.85250000  1.0
  N  N320  1  0.11570000  0.62910000  0.47460000  1.0
  N  N321  1  0.88430000  0.37090000  0.52540000  1.0
  N  N322  1  0.88060000  0.43900000  0.64750000  1.0
  N  N323  1  0.11940000  0.93900000  0.85250000  1.0
  N  N324  1  0.11570000  0.87090000  0.97460000  1.0
  N  N325  1  0.88060000  0.06100000  0.14750000  1.0
  N  N326  1  0.88430000  0.12910000  0.02540000  1.0
  N  N327  1  0.11940000  0.56100000  0.35250000  1.0
  O  O328  1  0.65510000  0.77820000  0.27100000  1.0
  O  O329  1  0.62060000  0.41850000  0.77950000  1.0
  O  O330  1  0.38730000  0.66780000  0.14310000  1.0
  O  O331  1  0.40960000  0.58377000  0.90803000  1.0
  O  O332  1  0.37940000  0.58150000  0.22050000  1.0
  O  O333  1  0.61270000  0.33220000  0.85690000  1.0
  O  O334  1  0.35040000  0.15190000  0.85500000  1.0
  O  O335  1  0.38730000  0.83220000  0.64310000  1.0
  O  O336  1  0.64960000  0.65190000  0.64500000  1.0
  O  O337  1  0.22800000  0.92453000  0.55980000  1.0
  O  O338  1  0.65510000  0.72180000  0.77100000  1.0
  O  O339  1  0.59040000  0.08377000  0.59197000  1.0
  O  O340  1  0.44450000  0.98098000  0.55627000  1.0
  O  O341  1  0.55550000  0.48098000  0.94373000  1.0
  O  O342  1  0.34490000  0.27820000  0.22900000  1.0
  O  O343  1  0.74130000  0.50580000  0.02270000  1.0
  O  O344  1  0.37940000  0.91850000  0.72050000  1.0
  O  O345  1  0.77200000  0.42453000  0.94020000  1.0
  O  O346  1  0.38300000  0.66730000  0.98773000  1.0
  O  O347  1  0.22800000  0.57547000  0.05980000  1.0
  O  O348  1  0.25870000  0.00580000  0.47730000  1.0
  O  O349  1  0.59040000  0.41623000  0.09197000  1.0
  O  O350  1  0.38300000  0.83270000  0.48773000  1.0
  O  O351  1  0.77200000  0.07547000  0.44020000  1.0
  O  O352  1  0.61700000  0.33270000  0.01227000  1.0
  O  O353  1  0.35040000  0.34810000  0.35500000  1.0
  O  O354  1  0.64960000  0.84810000  0.14500000  1.0
  O  O355  1  0.25870000  0.49420000  0.97730000  1.0
  O  O356  1  0.74130000  0.99420000  0.52270000  1.0
  O  O357  1  0.62060000  0.08150000  0.27950000  1.0
  O  O358  1  0.61270000  0.16780000  0.35690000  1.0
  O  O359  1  0.55550000  0.01902000  0.44373000  1.0
  O  O360  1  0.61700000  0.16730000  0.51227000  1.0
  O  O361  1  0.44450000  0.51902000  0.05627000  1.0
  O  O362  1  0.34490000  0.22180000  0.72900000  1.0
  O  O363  1  0.40960000  0.91623000  0.40803000  1.0
  O  O364  1  0.84490000  0.27820000  0.27100000  1.0
  O  O365  1  0.75870000  0.00580000  0.02270000  1.0
  O  O366  1  0.11700000  0.33270000  0.48773000  1.0
  O  O367  1  0.11700000  0.16730000  0.98773000  1.0
  O  O368  1  0.88730000  0.66780000  0.35690000  1.0
  O  O369  1  0.14960000  0.84810000  0.35500000  1.0
  O  O370  1  0.11270000  0.16780000  0.14310000  1.0
  O  O371  1  0.90960000  0.91623000  0.09197000  1.0
  O  O372  1  0.15510000  0.72180000  0.72900000  1.0
  O  O373  1  0.87940000  0.58150000  0.27950000  1.0
  O  O374  1  0.90960000  0.58377000  0.59197000  1.0
  O  O375  1  0.09040000  0.41623000  0.40803000  1.0
  O  O376  1  0.87940000  0.91850000  0.77950000  1.0
  O  O377  1  0.84490000  0.22180000  0.77100000  1.0
  O  O378  1  0.94450000  0.98098000  0.94373000  1.0
  O  O379  1  0.09040000  0.08377000  0.90803000  1.0
  O  O380  1  0.15510000  0.77820000  0.22900000  1.0
  O  O381  1  0.75870000  0.49420000  0.52270000  1.0
  O  O382  1  0.27200000  0.42453000  0.55980000  1.0
  O  O383  1  0.24130000  0.99420000  0.97730000  1.0
  O  O384  1  0.72800000  0.57547000  0.44020000  1.0
  O  O385  1  0.85040000  0.34810000  0.14500000  1.0
  O  O386  1  0.85040000  0.15190000  0.64500000  1.0
  O  O387  1  0.11270000  0.33220000  0.64310000  1.0
  O  O388  1  0.94450000  0.51902000  0.44373000  1.0
  O  O389  1  0.24130000  0.50580000  0.47730000  1.0
  O  O390  1  0.27200000  0.07547000  0.05980000  1.0
  O  O391  1  0.05550000  0.48098000  0.55627000  1.0
  O  O392  1  0.12060000  0.41850000  0.72050000  1.0
  O  O393  1  0.12060000  0.08150000  0.22050000  1.0
  O  O394  1  0.88730000  0.83220000  0.85690000  1.0
  O  O395  1  0.88300000  0.66730000  0.51227000  1.0
  O  O396  1  0.72800000  0.92453000  0.94020000  1.0
  O  O397  1  0.05550000  0.01902000  0.05627000  1.0
  O  O398  1  0.88300000  0.83270000  0.01227000  1.0
  O  O399  1  0.14960000  0.65190000  0.85500000  1.0
