# generated using pymatgen
data_Zn2P3H7(CO3)3
_symmetry_space_group_name_H-M   'P 1'
_cell_length_a   8.59890000
_cell_length_b   17.04400000
_cell_length_c   10.16500000
_cell_angle_alpha   90.00000000
_cell_angle_beta   108.43400000
_cell_angle_gamma   90.00000000
_symmetry_Int_Tables_number   1
_chemical_formula_structural   Zn2P3H7(CO3)3
_chemical_formula_sum   'Zn8 P12 H28 C12 O36'
_cell_volume   1413.33612228
_cell_formula_units_Z   4
loop_
 _symmetry_equiv_pos_site_id
 _symmetry_equiv_pos_as_xyz
  1  'x, y, z'
loop_
 _atom_site_type_symbol
 _atom_site_label
 _atom_site_symmetry_multiplicity
 _atom_site_fract_x
 _atom_site_fract_y
 _atom_site_fract_z
 _atom_site_occupancy
  Zn  Zn0  1  0.10572000  0.17166000  0.92118000  1.0
  Zn  Zn1  1  0.12258000  0.83164000  0.82182000  1.0
  Zn  Zn2  1  0.89428000  0.67166000  0.57882000  1.0
  Zn  Zn3  1  0.87742000  0.33164000  0.67818000  1.0
  Zn  Zn4  1  0.89428000  0.82834000  0.07882000  1.0
  Zn  Zn5  1  0.87742000  0.16836000  0.17818000  1.0
  Zn  Zn6  1  0.10572000  0.32834000  0.42118000  1.0
  Zn  Zn7  1  0.12258000  0.66836000  0.32182000  1.0
  P  P8  1  0.24102000  0.99648000  0.99165000  1.0
  P  P9  1  0.76414000  0.24774000  0.89456000  1.0
  P  P10  1  0.22444000  0.26095000  0.71489000  1.0
  P  P11  1  0.75898000  0.49648000  0.50835000  1.0
  P  P12  1  0.23586000  0.74774000  0.60544000  1.0
  P  P13  1  0.77556000  0.76095000  0.78511000  1.0
  P  P14  1  0.75898000  0.00352000  0.00835000  1.0
  P  P15  1  0.23586000  0.75226000  0.10544000  1.0
  P  P16  1  0.77556000  0.73905000  0.28511000  1.0
  P  P17  1  0.24102000  0.50352000  0.49165000  1.0
  P  P18  1  0.76414000  0.25226000  0.39456000  1.0
  P  P19  1  0.22444000  0.23905000  0.21489000  1.0
  H  H20  1  0.22690000  0.91470000  0.12770000  1.0
  H  H21  1  0.42540000  0.06500000  0.91540000  1.0
  H  H22  1  0.47930000  0.06640000  0.07780000  1.0
  H  H23  1  0.54860000  0.23060000  0.69420000  1.0
  H  H24  1  0.52680000  0.17610000  0.81110000  1.0
  H  H25  1  0.45460000  0.33870000  0.79020000  1.0
  H  H26  1  0.43970000  0.28630000  0.91260000  1.0
  H  H27  1  0.77310000  0.41470000  0.37230000  1.0
  H  H28  1  0.57460000  0.56500000  0.58460000  1.0
  H  H29  1  0.52070000  0.56640000  0.42220000  1.0
  H  H30  1  0.45140000  0.73060000  0.80580000  1.0
  H  H31  1  0.47320000  0.67610000  0.68890000  1.0
  H  H32  1  0.54540000  0.83870000  0.70980000  1.0
  H  H33  1  0.56030000  0.78630000  0.58740000  1.0
  H  H34  1  0.77310000  0.08530000  0.87230000  1.0
  H  H35  1  0.57460000  0.93500000  0.08460000  1.0
  H  H36  1  0.52070000  0.93360000  0.92220000  1.0
  H  H37  1  0.45140000  0.76940000  0.30580000  1.0
  H  H38  1  0.47320000  0.82390000  0.18890000  1.0
  H  H39  1  0.54540000  0.66130000  0.20980000  1.0
  H  H40  1  0.56030000  0.71370000  0.08740000  1.0
  H  H41  1  0.22690000  0.58530000  0.62770000  1.0
  H  H42  1  0.42540000  0.43500000  0.41540000  1.0
  H  H43  1  0.47930000  0.43360000  0.57780000  1.0
  H  H44  1  0.54860000  0.26940000  0.19420000  1.0
  H  H45  1  0.52680000  0.32390000  0.31110000  1.0
  H  H46  1  0.45460000  0.16130000  0.29020000  1.0
  H  H47  1  0.43970000  0.21370000  0.41260000  1.0
  C  C48  1  0.43740000  0.03300000  0.99700000  1.0
  C  C49  1  0.55580000  0.22880000  0.79130000  1.0
  C  C50  1  0.43030000  0.28610000  0.81500000  1.0
  C  C51  1  0.56260000  0.53300000  0.50300000  1.0
  C  C52  1  0.44420000  0.72880000  0.70870000  1.0
  C  C53  1  0.56970000  0.78610000  0.68500000  1.0
  C  C54  1  0.56260000  0.96700000  0.00300000  1.0
  C  C55  1  0.44420000  0.77120000  0.20870000  1.0
  C  C56  1  0.56970000  0.71390000  0.18500000  1.0
  C  C57  1  0.43740000  0.46700000  0.49700000  1.0
  C  C58  1  0.55580000  0.27120000  0.29130000  1.0
  C  C59  1  0.43030000  0.21390000  0.31500000  1.0
  O  O60  1  0.27500000  0.95690000  0.13690000  1.0
  O  O61  1  0.18780000  0.93790000  0.87600000  1.0
  O  O62  1  0.12450000  0.06380000  0.97540000  1.0
  O  O63  1  0.81720000  0.32653000  0.84980000  1.0
  O  O64  1  0.86580000  0.18014000  0.86330000  1.0
  O  O65  1  0.77300000  0.24960000  0.04670000  1.0
  O  O66  1  0.11380000  0.32357000  0.74370000  1.0
  O  O67  1  0.18810000  0.17902000  0.76270000  1.0
  O  O68  1  0.21570000  0.25460000  0.56330000  1.0
  O  O69  1  0.72500000  0.45690000  0.36310000  1.0
  O  O70  1  0.81220000  0.43790000  0.62400000  1.0
  O  O71  1  0.87550000  0.56380000  0.52460000  1.0
  O  O72  1  0.18280000  0.82653000  0.65020000  1.0
  O  O73  1  0.13420000  0.68014000  0.63670000  1.0
  O  O74  1  0.22700000  0.74960000  0.45330000  1.0
  O  O75  1  0.88620000  0.82357000  0.75630000  1.0
  O  O76  1  0.81190000  0.67902000  0.73730000  1.0
  O  O77  1  0.78430000  0.75460000  0.93670000  1.0
  O  O78  1  0.72500000  0.04310000  0.86310000  1.0
  O  O79  1  0.81220000  0.06210000  0.12400000  1.0
  O  O80  1  0.87550000  0.93620000  0.02460000  1.0
  O  O81  1  0.18280000  0.67347000  0.15020000  1.0
  O  O82  1  0.13420000  0.81986000  0.13670000  1.0
  O  O83  1  0.22700000  0.75040000  0.95330000  1.0
  O  O84  1  0.88620000  0.67643000  0.25630000  1.0
  O  O85  1  0.81190000  0.82098000  0.23730000  1.0
  O  O86  1  0.78430000  0.74540000  0.43670000  1.0
  O  O87  1  0.27500000  0.54310000  0.63690000  1.0
  O  O88  1  0.18780000  0.56210000  0.37600000  1.0
  O  O89  1  0.12450000  0.43620000  0.47540000  1.0
  O  O90  1  0.81720000  0.17347000  0.34980000  1.0
  O  O91  1  0.86580000  0.31986000  0.36330000  1.0
  O  O92  1  0.77300000  0.25040000  0.54670000  1.0
  O  O93  1  0.11380000  0.17643000  0.24370000  1.0
  O  O94  1  0.18810000  0.32098000  0.26270000  1.0
  O  O95  1  0.21570000  0.24540000  0.06330000  1.0
