# generated using pymatgen
data_Zn9P6H24(C21O16)2
_symmetry_space_group_name_H-M   'P 1'
_cell_length_a   10.14300000
_cell_length_b   10.25700000
_cell_length_c   15.50000000
_cell_angle_alpha   86.98200000
_cell_angle_beta   73.52000000
_cell_angle_gamma   81.22900000
_symmetry_Int_Tables_number   1
_chemical_formula_structural   Zn9P6H24(C21O16)2
_chemical_formula_sum   'Zn9 P6 H24 C42 O32'
_cell_volume   1528.16512726
_cell_formula_units_Z   1
loop_
 _symmetry_equiv_pos_site_id
 _symmetry_equiv_pos_as_xyz
  1  'x, y, z'
loop_
 _atom_site_type_symbol
 _atom_site_label
 _atom_site_symmetry_multiplicity
 _atom_site_fract_x
 _atom_site_fract_y
 _atom_site_fract_z
 _atom_site_occupancy
  Zn  Zn0  1  0.48645000  0.24757000  0.15729000  1.0
  Zn  Zn1  1  0.45532000  0.23912000  0.93405000  1.0
  Zn  Zn2  1  0.45758000  0.77761000  0.30037000  1.0
  Zn  Zn3  1  0.45864000  0.07837000  0.39344000  1.0
  Zn  Zn4  1  0.51355000  0.75243000  0.84271000  1.0
  Zn  Zn5  1  0.54468000  0.76088000  0.06595000  1.0
  Zn  Zn6  1  0.54242000  0.22239000  0.69963000  1.0
  Zn  Zn7  1  0.54136000  0.92163000  0.60656000  1.0
  Zn  Zn8  1  0.50000000  0.50000000  0.00000000  1.0
  P  P9  1  0.58510000  0.50795000  0.19815000  1.0
  P  P10  1  0.64020000  0.95420000  0.20262000  1.0
  P  P11  1  0.64800000  0.16340000  0.48638000  1.0
  P  P12  1  0.41490000  0.49205000  0.80185000  1.0
  P  P13  1  0.35980000  0.04580000  0.79738000  1.0
  P  P14  1  0.35200000  0.83660000  0.51362000  1.0
  H  H15  1  0.78650000  0.30160000  0.09890000  1.0
  H  H16  1  0.02510000  0.26430000  0.04440000  1.0
  H  H17  1  0.05280000  0.59760000  0.15450000  1.0
  H  H18  1  0.81390000  0.63780000  0.20910000  1.0
  H  H19  1  0.90040000  0.97280000  0.07510000  1.0
  H  H20  1  0.13180000  0.93320000  0.07410000  1.0
  H  H21  1  0.01890000  0.83710000  0.33470000  1.0
  H  H22  1  0.78850000  0.87580000  0.33460000  1.0
  H  H23  1  0.03220000  0.23820000  0.22990000  1.0
  H  H24  1  0.79750000  0.23210000  0.30420000  1.0
  H  H25  1  0.89890000  0.13740000  0.53410000  1.0
  H  H26  1  0.12960000  0.15120000  0.46100000  1.0
  H  H27  1  0.21350000  0.69840000  0.90110000  1.0
  H  H28  1  0.97490000  0.73570000  0.95560000  1.0
  H  H29  1  0.94720000  0.40240000  0.84550000  1.0
  H  H30  1  0.18610000  0.36220000  0.79090000  1.0
  H  H31  1  0.09960000  0.02720000  0.92490000  1.0
  H  H32  1  0.86820000  0.06680000  0.92590000  1.0
  H  H33  1  0.98110000  0.16290000  0.66530000  1.0
  H  H34  1  0.21150000  0.12420000  0.66540000  1.0
  H  H35  1  0.96780000  0.76180000  0.77010000  1.0
  H  H36  1  0.20250000  0.76790000  0.69580000  1.0
  H  H37  1  0.10110000  0.86260000  0.46590000  1.0
  H  H38  1  0.87040000  0.84880000  0.53900000  1.0
  C  C39  1  0.77300000  0.47530000  0.15930000  1.0
  C  C40  1  0.83900000  0.36230000  0.10990000  1.0
  C  C41  1  0.98250000  0.34000000  0.07730000  1.0
  C  C42  1  0.06360000  0.42800000  0.09290000  1.0
  C  C43  1  0.99940000  0.53830000  0.14270000  1.0
  C  C44  1  0.85560000  0.56240000  0.17560000  1.0
  C  C45  1  0.21970000  0.40140000  0.05510000  1.0
  C  C46  1  0.81890000  0.92850000  0.20600000  1.0
  C  C47  1  0.92360000  0.94510000  0.12770000  1.0
  C  C48  1  0.06310000  0.92090000  0.12700000  1.0
  C  C49  1  0.09910000  0.87990000  0.20220000  1.0
  C  C50  1  0.99540000  0.86370000  0.28200000  1.0
  C  C51  1  0.85710000  0.88780000  0.28160000  1.0
  C  C52  1  0.25100000  0.84610000  0.20120000  1.0
  C  C53  1  0.25330000  0.20340000  0.29190000  1.0
  C  C54  1  0.10170000  0.19590000  0.33860000  1.0
  C  C55  1  0.00480000  0.21920000  0.29120000  1.0
  C  C56  1  0.86410000  0.21430000  0.33560000  1.0
  C  C57  1  0.82540000  0.18260000  0.42660000  1.0
  C  C58  1  0.92500000  0.15860000  0.47310000  1.0
  C  C59  1  0.06320000  0.16610000  0.42940000  1.0
  C  C60  1  0.22700000  0.52470000  0.84070000  1.0
  C  C61  1  0.16100000  0.63770000  0.89010000  1.0
  C  C62  1  0.01750000  0.66000000  0.92270000  1.0
  C  C63  1  0.93640000  0.57200000  0.90710000  1.0
  C  C64  1  0.00060000  0.46170000  0.85730000  1.0
  C  C65  1  0.14440000  0.43760000  0.82440000  1.0
  C  C66  1  0.78030000  0.59860000  0.94490000  1.0
  C  C67  1  0.18110000  0.07150000  0.79400000  1.0
  C  C68  1  0.07640000  0.05490000  0.87230000  1.0
  C  C69  1  0.93690000  0.07910000  0.87300000  1.0
  C  C70  1  0.90090000  0.12010000  0.79780000  1.0
  C  C71  1  0.00460000  0.13630000  0.71800000  1.0
  C  C72  1  0.14290000  0.11220000  0.71840000  1.0
  C  C73  1  0.74900000  0.15390000  0.79880000  1.0
  C  C74  1  0.74670000  0.79660000  0.70810000  1.0
  C  C75  1  0.89830000  0.80410000  0.66140000  1.0
  C  C76  1  0.99520000  0.78080000  0.70880000  1.0
  C  C77  1  0.13590000  0.78570000  0.66440000  1.0
  C  C78  1  0.17460000  0.81740000  0.57340000  1.0
  C  C79  1  0.07500000  0.84140000  0.52690000  1.0
  C  C80  1  0.93680000  0.83390000  0.57060000  1.0
  O  O81  1  0.54720000  0.30000000  0.02870000  1.0
  O  O82  1  0.53030000  0.57390000  0.12220000  1.0
  O  O83  1  0.53060000  0.37830000  0.22660000  1.0
  O  O84  1  0.54780000  0.59700000  0.27950000  1.0
  O  O85  1  0.26730000  0.29050000  0.01660000  1.0
  O  O86  1  0.28880000  0.48800000  0.06420000  1.0
  O  O87  1  0.61370000  0.83710000  0.15930000  1.0
  O  O88  1  0.61360000  0.08390000  0.15670000  1.0
  O  O89  1  0.54990000  0.94620000  0.30110000  1.0
  O  O90  1  0.33700000  0.84510000  0.12570000  1.0
  O  O91  1  0.27680000  0.82610000  0.27620000  1.0
  O  O92  1  0.33350000  0.20210000  0.34100000  1.0
  O  O93  1  0.29170000  0.21660000  0.20810000  1.0
  O  O94  1  0.65170000  0.01730000  0.51020000  1.0
  O  O95  1  0.55860000  0.20600000  0.42340000  1.0
  O  O96  1  0.60660000  0.25190000  0.56780000  1.0
  O  O97  1  0.45280000  0.70000000  0.97130000  1.0
  O  O98  1  0.46970000  0.42610000  0.87780000  1.0
  O  O99  1  0.46940000  0.62170000  0.77340000  1.0
  O  O100  1  0.45220000  0.40300000  0.72050000  1.0
  O  O101  1  0.73270000  0.70950000  0.98340000  1.0
  O  O102  1  0.71120000  0.51200000  0.93580000  1.0
  O  O103  1  0.38630000  0.16290000  0.84070000  1.0
  O  O104  1  0.38640000  0.91610000  0.84330000  1.0
  O  O105  1  0.45010000  0.05380000  0.69890000  1.0
  O  O106  1  0.66300000  0.15490000  0.87430000  1.0
  O  O107  1  0.72320000  0.17390000  0.72380000  1.0
  O  O108  1  0.66650000  0.79790000  0.65900000  1.0
  O  O109  1  0.70830000  0.78340000  0.79190000  1.0
  O  O110  1  0.34830000  0.98270000  0.48980000  1.0
  O  O111  1  0.44140000  0.79400000  0.57660000  1.0
  O  O112  1  0.39340000  0.74810000  0.43220000  1.0
