# generated using pymatgen
data_TbEu7H56(C5O2)24
_symmetry_space_group_name_H-M   'P 1'
_cell_length_a   13.01300000
_cell_length_b   13.84600000
_cell_length_c   28.02900000
_cell_angle_alpha   75.71000000
_cell_angle_beta   79.28000000
_cell_angle_gamma   85.59000000
_symmetry_Int_Tables_number   1
_chemical_formula_structural   TbEu7H56(C5O2)24
_chemical_formula_sum   'Tb1 Eu7 H56 C120 O48'
_cell_volume   4805.99411704
_cell_formula_units_Z   1
loop_
 _symmetry_equiv_pos_site_id
 _symmetry_equiv_pos_as_xyz
  1  'x, y, z'
loop_
 _atom_site_type_symbol
 _atom_site_label
 _atom_site_symmetry_multiplicity
 _atom_site_fract_x
 _atom_site_fract_y
 _atom_site_fract_z
 _atom_site_occupancy
  Tb  Tb0  1  0.11955000  0.97887000  0.44587000  1.0
  Eu  Eu1  1  0.47158000  0.53808000  0.41513000  1.0
  Eu  Eu2  1  0.03064000  0.87534000  0.06060000  1.0
  Eu  Eu3  1  0.51721000  0.48092000  0.91410000  1.0
  Eu  Eu4  1  0.88045000  0.02113000  0.55413000  1.0
  Eu  Eu5  1  0.52842000  0.46192000  0.58487000  1.0
  Eu  Eu6  1  0.96936000  0.12466000  0.93940000  1.0
  Eu  Eu7  1  0.48279000  0.51908000  0.08590000  1.0
  H  H8  1  0.72520000  0.74430000  0.51570000  1.0
  H  H9  1  0.72790000  0.66610000  0.38690000  1.0
  H  H10  1  0.91670000  0.87930000  0.39150000  1.0
  H  H11  1  0.00310000  0.85340000  0.32070000  1.0
  H  H12  1  0.05920000  0.87290000  0.23590000  1.0
  H  H13  1  0.80870000  0.73830000  0.22580000  1.0
  H  H14  1  0.75360000  0.71630000  0.31050000  1.0
  H  H15  1  0.75040000  0.27400000  0.43780000  1.0
  H  H16  1  0.02570000  0.26240000  0.34650000  1.0
  H  H17  1  0.81610000  0.48070000  0.30930000  1.0
  H  H18  1  0.96790000  0.56950000  0.27580000  1.0
  H  H19  1  0.09630000  0.64470000  0.21200000  1.0
  H  H20  1  0.20710000  0.37660000  0.19460000  1.0
  H  H21  1  0.07800000  0.30160000  0.25860000  1.0
  H  H22  1  0.73820000  0.24060000  0.05730000  1.0
  H  H23  1  0.54170000  0.18130000  0.18790000  1.0
  H  H24  1  0.75910000  0.97560000  0.15410000  1.0
  H  H25  1  0.62400000  0.87260000  0.20110000  1.0
  H  H26  1  0.55880000  0.76090000  0.27450000  1.0
  H  H27  1  0.49270000  0.98290000  0.34380000  1.0
  H  H28  1  0.56270000  0.09420000  0.27040000  1.0
  H  H29  1  0.74720000  0.72830000  0.01370000  1.0
  H  H30  1  0.86290000  0.92510000  0.88820000  1.0
  H  H31  1  0.68030000  0.71030000  0.88150000  1.0
  H  H32  1  0.65020000  0.82380000  0.81050000  1.0
  H  H33  1  0.67610000  0.87570000  0.72480000  1.0
  H  H34  1  0.96350000  0.95790000  0.72410000  1.0
  H  H35  1  0.93850000  0.90440000  0.81000000  1.0
  H  H36  1  0.27480000  0.25570000  0.48430000  1.0
  H  H37  1  0.27210000  0.33390000  0.61310000  1.0
  H  H38  1  0.08330000  0.12070000  0.60850000  1.0
  H  H39  1  0.99690000  0.14660000  0.67930000  1.0
  H  H40  1  0.94080000  0.12710000  0.76410000  1.0
  H  H41  1  0.19130000  0.26170000  0.77420000  1.0
  H  H42  1  0.24640000  0.28370000  0.68950000  1.0
  H  H43  1  0.24960000  0.72600000  0.56220000  1.0
  H  H44  1  0.97430000  0.73760000  0.65350000  1.0
  H  H45  1  0.18390000  0.51930000  0.69070000  1.0
  H  H46  1  0.03210000  0.43050000  0.72420000  1.0
  H  H47  1  0.90370000  0.35530000  0.78800000  1.0
  H  H48  1  0.79290000  0.62340000  0.80540000  1.0
  H  H49  1  0.92200000  0.69840000  0.74140000  1.0
  H  H50  1  0.26180000  0.75940000  0.94270000  1.0
  H  H51  1  0.45830000  0.81870000  0.81210000  1.0
  H  H52  1  0.24090000  0.02440000  0.84590000  1.0
  H  H53  1  0.37600000  0.12740000  0.79890000  1.0
  H  H54  1  0.44120000  0.23910000  0.72550000  1.0
  H  H55  1  0.50730000  0.01710000  0.65620000  1.0
  H  H56  1  0.43730000  0.90580000  0.72960000  1.0
  H  H57  1  0.25280000  0.27170000  0.98630000  1.0
  H  H58  1  0.13710000  0.07490000  0.11180000  1.0
  H  H59  1  0.31970000  0.28970000  0.11850000  1.0
  H  H60  1  0.34980000  0.17620000  0.18950000  1.0
  H  H61  1  0.32390000  0.12430000  0.27520000  1.0
  H  H62  1  0.03650000  0.04210000  0.27590000  1.0
  H  H63  1  0.06150000  0.09560000  0.19000000  1.0
  C  C64  1  0.82450000  0.82280000  0.45760000  1.0
  C  C65  1  0.75080000  0.75220000  0.48170000  1.0
  C  C66  1  0.71480000  0.69310000  0.45530000  1.0
  C  C67  1  0.75300000  0.70520000  0.40460000  1.0
  C  C68  1  0.82940000  0.77640000  0.37930000  1.0
  C  C69  1  0.86510000  0.83340000  0.40690000  1.0
  C  C70  1  0.86720000  0.78840000  0.32440000  1.0
  C  C71  1  0.96200000  0.83210000  0.30170000  1.0
  C  C72  1  0.99530000  0.84400000  0.25060000  1.0
  C  C73  1  0.93670000  0.81450000  0.22130000  1.0
  C  C74  1  0.84710000  0.76400000  0.24450000  1.0
  C  C75  1  0.81400000  0.75120000  0.29540000  1.0
  C  C76  1  0.85920000  0.88830000  0.48670000  1.0
  C  C77  1  0.63950000  0.61180000  0.48230000  1.0
  C  C78  1  0.97320000  0.83090000  0.16560000  1.0
  C  C79  1  0.76620000  0.38380000  0.37480000  1.0
  C  C80  1  0.79560000  0.29990000  0.40820000  1.0
  C  C81  1  0.89390000  0.25370000  0.39740000  1.0
  C  C82  1  0.96090000  0.29380000  0.35360000  1.0
  C  C83  1  0.93410000  0.37950000  0.31990000  1.0
  C  C84  1  0.83590000  0.42330000  0.33130000  1.0
  C  C85  1  0.01030000  0.42740000  0.27590000  1.0
  C  C86  1  0.01680000  0.52970000  0.26000000  1.0
  C  C87  1  0.09360000  0.57550000  0.22150000  1.0
  C  C88  1  0.16650000  0.51680000  0.19720000  1.0
  C  C89  1  0.15940000  0.41600000  0.21120000  1.0
  C  C90  1  0.08180000  0.37070000  0.25000000  1.0
  C  C91  1  0.66090000  0.43280000  0.38580000  1.0
  C  C92  1  0.92950000  0.16440000  0.43540000  1.0
  C  C93  1  0.25570000  0.56560000  0.15880000  1.0
  C  C94  1  0.76100000  0.10300000  0.10020000  1.0
  C  C95  1  0.71450000  0.19720000  0.08780000  1.0
  C  C96  1  0.63250000  0.22650000  0.12110000  1.0
  C  C97  1  0.59740000  0.16140000  0.16600000  1.0
  C  C98  1  0.64270000  0.06700000  0.17940000  1.0
  C  C99  1  0.72660000  0.03820000  0.14570000  1.0
  C  C100  1  0.60090000  0.99550000  0.22750000  1.0
  C  C101  1  0.59860000  0.89570000  0.22960000  1.0
  C  C102  1  0.55890000  0.82840000  0.27390000  1.0
  C  C103  1  0.52000000  0.85980000  0.31660000  1.0
  C  C104  1  0.52000000  0.95990000  0.31530000  1.0
  C  C105  1  0.56150000  0.02690000  0.27090000  1.0
  C  C106  1  0.84820000  0.06830000  0.06360000  1.0
  C  C107  1  0.57970000  0.32790000  0.10800000  1.0
  C  C108  1  0.48040000  0.78480000  0.36490000  1.0
  C  C109  1  0.69950000  0.70820000  0.95220000  1.0
  C  C110  1  0.75290000  0.75290000  0.97930000  1.0
  C  C111  1  0.81470000  0.83440000  0.95510000  1.0
  C  C112  1  0.82360000  0.86920000  0.90410000  1.0
  C  C113  1  0.77540000  0.82290000  0.87580000  1.0
  C  C114  1  0.71310000  0.74200000  0.89990000  1.0
  C  C115  1  0.79100000  0.85830000  0.82040000  1.0
  C  C116  1  0.71380000  0.85080000  0.79350000  1.0
  C  C117  1  0.72900000  0.88230000  0.74190000  1.0
  C  C118  1  0.82210000  0.92350000  0.71560000  1.0
  C  C119  1  0.90000000  0.93100000  0.74140000  1.0
  C  C120  1  0.88480000  0.89880000  0.79320000  1.0
  C  C121  1  0.63080000  0.62390000  0.97920000  1.0
  C  C122  1  0.87310000  0.88000000  0.98510000  1.0
  C  C123  1  0.83920000  0.96140000  0.65960000  1.0
  C  C124  1  0.17550000  0.17720000  0.54240000  1.0
  C  C125  1  0.24920000  0.24780000  0.51830000  1.0
  C  C126  1  0.28520000  0.30690000  0.54470000  1.0
  C  C127  1  0.24700000  0.29480000  0.59540000  1.0
  C  C128  1  0.17060000  0.22360000  0.62070000  1.0
  C  C129  1  0.13490000  0.16660000  0.59310000  1.0
  C  C130  1  0.13280000  0.21160000  0.67560000  1.0
  C  C131  1  0.03800000  0.16790000  0.69830000  1.0
  C  C132  1  0.00470000  0.15600000  0.74940000  1.0
  C  C133  1  0.06330000  0.18550000  0.77870000  1.0
  C  C134  1  0.15290000  0.23600000  0.75550000  1.0
  C  C135  1  0.18600000  0.24880000  0.70460000  1.0
  C  C136  1  0.14080000  0.11170000  0.51330000  1.0
  C  C137  1  0.36050000  0.38820000  0.51770000  1.0
  C  C138  1  0.02680000  0.16910000  0.83440000  1.0
  C  C139  1  0.23380000  0.61620000  0.62520000  1.0
  C  C140  1  0.20440000  0.70010000  0.59180000  1.0
  C  C141  1  0.10610000  0.74630000  0.60260000  1.0
  C  C142  1  0.03910000  0.70620000  0.64640000  1.0
  C  C143  1  0.06590000  0.62050000  0.68010000  1.0
  C  C144  1  0.16410000  0.57670000  0.66870000  1.0
  C  C145  1  0.98970000  0.57260000  0.72410000  1.0
  C  C146  1  0.98320000  0.47030000  0.74000000  1.0
  C  C147  1  0.90640000  0.42450000  0.77850000  1.0
  C  C148  1  0.83350000  0.48320000  0.80280000  1.0
  C  C149  1  0.84060000  0.58400000  0.78880000  1.0
  C  C150  1  0.91820000  0.62930000  0.75000000  1.0
  C  C151  1  0.33910000  0.56720000  0.61420000  1.0
  C  C152  1  0.07050000  0.83560000  0.56460000  1.0
  C  C153  1  0.74430000  0.43440000  0.84120000  1.0
  C  C154  1  0.23900000  0.89700000  0.89980000  1.0
  C  C155  1  0.28550000  0.80280000  0.91220000  1.0
  C  C156  1  0.36750000  0.77350000  0.87890000  1.0
  C  C157  1  0.40260000  0.83860000  0.83400000  1.0
  C  C158  1  0.35730000  0.93300000  0.82060000  1.0
  C  C159  1  0.27340000  0.96180000  0.85430000  1.0
  C  C160  1  0.39910000  0.00450000  0.77250000  1.0
  C  C161  1  0.40140000  0.10430000  0.77040000  1.0
  C  C162  1  0.44110000  0.17160000  0.72610000  1.0
  C  C163  1  0.48000000  0.14020000  0.68340000  1.0
  C  C164  1  0.48000000  0.04010000  0.68470000  1.0
  C  C165  1  0.43850000  0.97310000  0.72910000  1.0
  C  C166  1  0.15180000  0.93170000  0.93640000  1.0
  C  C167  1  0.42030000  0.67210000  0.89200000  1.0
  C  C168  1  0.51960000  0.21520000  0.63510000  1.0
  C  C169  1  0.30050000  0.29180000  0.04780000  1.0
  C  C170  1  0.24710000  0.24710000  0.02070000  1.0
  C  C171  1  0.18530000  0.16560000  0.04490000  1.0
  C  C172  1  0.17640000  0.13080000  0.09590000  1.0
  C  C173  1  0.22460000  0.17710000  0.12420000  1.0
  C  C174  1  0.28690000  0.25800000  0.10010000  1.0
  C  C175  1  0.20900000  0.14170000  0.17960000  1.0
  C  C176  1  0.28620000  0.14920000  0.20650000  1.0
  C  C177  1  0.27100000  0.11770000  0.25810000  1.0
  C  C178  1  0.17790000  0.07650000  0.28440000  1.0
  C  C179  1  0.10000000  0.06900000  0.25860000  1.0
  C  C180  1  0.11520000  0.10120000  0.20680000  1.0
  C  C181  1  0.36920000  0.37610000  0.02080000  1.0
  C  C182  1  0.12690000  0.12000000  0.01490000  1.0
  C  C183  1  0.16080000  0.03860000  0.34040000  1.0
  O  O184  1  0.94470000  0.93210000  0.47240000  1.0
  O  O185  1  0.79890000  0.89890000  0.52615000  1.0
  O  O186  1  0.60000000  0.56710000  0.45682000  1.0
  O  O187  1  0.62460000  0.59060000  0.52898000  1.0
  O  O188  1  0.04470000  0.88890000  0.14483000  1.0
  O  O189  1  0.93050000  0.78590000  0.14101000  1.0
  O  O190  1  0.63980000  0.51700000  0.35810000  1.0
  O  O191  1  0.59570000  0.39190000  0.42349000  1.0
  O  O192  1  0.86880000  0.13530000  0.47613000  1.0
  O  O193  1  0.01880000  0.12690000  0.42219000  1.0
  O  O194  1  0.25940000  0.65960000  0.14720000  1.0
  O  O195  1  0.32460000  0.50820000  0.14131000  1.0
  O  O196  1  0.88920000  0.98420000  0.07753000  1.0
  O  O197  1  0.87640000  0.12750000  0.02166000  1.0
  O  O198  1  0.50400000  0.35080000  0.13824000  1.0
  O  O199  1  0.61290000  0.38670000  0.06686000  1.0
  O  O200  1  0.49080000  0.69450000  0.36314000  1.0
  O  O201  1  0.44330000  0.81500000  0.40310000  1.0
  O  O202  1  0.59820000  0.57200000  0.95505000  1.0
  O  O203  1  0.61130000  0.60710000  0.02570000  1.0
  O  O204  1  0.90160000  0.96760000  0.96699000  1.0
  O  O205  1  0.89260000  0.82690000  0.02565000  1.0
  O  O206  1  0.77960000  0.93550000  0.63574000  1.0
  O  O207  1  0.91290000  0.01790000  0.63864000  1.0
  O  O208  1  0.05530000  0.06790000  0.52760000  1.0
  O  O209  1  0.20110000  0.10110000  0.47385000  1.0
  O  O210  1  0.40000000  0.43290000  0.54318000  1.0
  O  O211  1  0.37540000  0.40940000  0.47102000  1.0
  O  O212  1  0.95530000  0.11110000  0.85517000  1.0
  O  O213  1  0.06950000  0.21410000  0.85899000  1.0
  O  O214  1  0.36020000  0.48300000  0.64190000  1.0
  O  O215  1  0.40430000  0.60810000  0.57651000  1.0
  O  O216  1  0.13120000  0.86470000  0.52387000  1.0
  O  O217  1  0.98120000  0.87310000  0.57781000  1.0
  O  O218  1  0.74060000  0.34040000  0.85280000  1.0
  O  O219  1  0.67540000  0.49180000  0.85869000  1.0
  O  O220  1  0.11080000  0.01580000  0.92247000  1.0
  O  O221  1  0.12360000  0.87250000  0.97834000  1.0
  O  O222  1  0.49600000  0.64920000  0.86176000  1.0
  O  O223  1  0.38710000  0.61330000  0.93314000  1.0
  O  O224  1  0.50920000  0.30550000  0.63686000  1.0
  O  O225  1  0.55670000  0.18500000  0.59690000  1.0
  O  O226  1  0.40180000  0.42800000  0.04495000  1.0
  O  O227  1  0.38870000  0.39290000  0.97430000  1.0
  O  O228  1  0.09840000  0.03240000  0.03301000  1.0
  O  O229  1  0.10740000  0.17310000  0.97435000  1.0
  O  O230  1  0.22040000  0.06450000  0.36426000  1.0
  O  O231  1  0.08710000  0.98210000  0.36136000  1.0
