# generated using pymatgen
data_LaH15C24(NO)6
_symmetry_space_group_name_H-M   'P 1'
_cell_length_a   24.43400000
_cell_length_b   18.36400000
_cell_length_c   8.25900000
_cell_angle_alpha   90.00000000
_cell_angle_beta   101.72000000
_cell_angle_gamma   90.00000000
_symmetry_Int_Tables_number   1
_chemical_formula_structural   LaH15C24(NO)6
_chemical_formula_sum   'La4 H60 C96 N24 O24'
_cell_volume   3628.60270086
_cell_formula_units_Z   4
loop_
 _symmetry_equiv_pos_site_id
 _symmetry_equiv_pos_as_xyz
  1  'x, y, z'
loop_
 _atom_site_type_symbol
 _atom_site_label
 _atom_site_symmetry_multiplicity
 _atom_site_fract_x
 _atom_site_fract_y
 _atom_site_fract_z
 _atom_site_occupancy
  La  La0  1  0.74737000  0.48604000  0.80396000  1.0
  La  La1  1  0.24737000  0.98604000  0.80396000  1.0
  La  La2  1  0.74737000  0.51396000  0.30396000  1.0
  La  La3  1  0.24737000  0.01396000  0.30396000  1.0
  H  H4  1  0.31930000  0.37100000  0.04760000  1.0
  H  H5  1  0.41390000  0.23420000  0.84870000  1.0
  H  H6  1  0.50980000  0.47120000  0.70950000  1.0
  H  H7  1  0.58580000  0.45260000  0.58660000  1.0
  H  H8  1  0.59690000  0.66640000  0.51740000  1.0
  H  H9  1  0.51700000  0.68310000  0.61920000  1.0
  H  H10  1  0.27200000  0.26930000  0.13020000  1.0
  H  H11  1  0.36720000  0.13700000  0.92620000  1.0
  H  H12  1  0.32850000  0.81670000  0.99260000  1.0
  H  H13  1  0.35170000  0.70270000  0.92670000  1.0
  H  H14  1  0.20890000  0.73640000  0.20670000  1.0
  H  H15  1  0.23300000  0.62250000  0.14140000  1.0
  H  H16  1  0.42180000  0.35430000  0.81870000  1.0
  H  H17  1  0.28780000  0.54560000  0.03830000  1.0
  H  H18  1  0.45820000  0.64230000  0.77480000  1.0
  H  H19  1  0.81930000  0.87100000  0.04760000  1.0
  H  H20  1  0.91390000  0.73420000  0.84870000  1.0
  H  H21  1  0.00980000  0.97120000  0.70950000  1.0
  H  H22  1  0.08580000  0.95260000  0.58660000  1.0
  H  H23  1  0.09690000  0.16640000  0.51740000  1.0
  H  H24  1  0.01700000  0.18310000  0.61920000  1.0
  H  H25  1  0.77200000  0.76930000  0.13020000  1.0
  H  H26  1  0.86720000  0.63700000  0.92620000  1.0
  H  H27  1  0.82850000  0.31670000  0.99260000  1.0
  H  H28  1  0.85170000  0.20270000  0.92670000  1.0
  H  H29  1  0.70890000  0.23640000  0.20670000  1.0
  H  H30  1  0.73300000  0.12250000  0.14140000  1.0
  H  H31  1  0.92180000  0.85430000  0.81870000  1.0
  H  H32  1  0.78780000  0.04560000  0.03830000  1.0
  H  H33  1  0.95820000  0.14230000  0.77480000  1.0
  H  H34  1  0.31930000  0.62900000  0.54760000  1.0
  H  H35  1  0.41390000  0.76580000  0.34870000  1.0
  H  H36  1  0.50980000  0.52880000  0.20950000  1.0
  H  H37  1  0.58580000  0.54740000  0.08660000  1.0
  H  H38  1  0.59690000  0.33360000  0.01740000  1.0
  H  H39  1  0.51700000  0.31690000  0.11920000  1.0
  H  H40  1  0.27200000  0.73070000  0.63020000  1.0
  H  H41  1  0.36720000  0.86300000  0.42620000  1.0
  H  H42  1  0.32850000  0.18330000  0.49260000  1.0
  H  H43  1  0.35170000  0.29730000  0.42670000  1.0
  H  H44  1  0.20890000  0.26360000  0.70670000  1.0
  H  H45  1  0.23300000  0.37750000  0.64140000  1.0
  H  H46  1  0.42180000  0.64570000  0.31870000  1.0
  H  H47  1  0.28780000  0.45440000  0.53830000  1.0
  H  H48  1  0.45820000  0.35770000  0.27480000  1.0
  H  H49  1  0.81930000  0.12900000  0.54760000  1.0
  H  H50  1  0.91390000  0.26580000  0.34870000  1.0
  H  H51  1  0.00980000  0.02880000  0.20950000  1.0
  H  H52  1  0.08580000  0.04740000  0.08660000  1.0
  H  H53  1  0.09690000  0.83360000  0.01740000  1.0
  H  H54  1  0.01700000  0.81690000  0.11920000  1.0
  H  H55  1  0.77200000  0.23070000  0.63020000  1.0
  H  H56  1  0.86720000  0.36300000  0.42620000  1.0
  H  H57  1  0.82850000  0.68330000  0.49260000  1.0
  H  H58  1  0.85170000  0.79730000  0.42670000  1.0
  H  H59  1  0.70890000  0.76360000  0.70670000  1.0
  H  H60  1  0.73300000  0.87750000  0.64140000  1.0
  H  H61  1  0.92180000  0.14570000  0.31870000  1.0
  H  H62  1  0.78780000  0.95440000  0.53830000  1.0
  H  H63  1  0.95820000  0.85770000  0.27480000  1.0
  C  C64  1  0.35060000  0.54520000  0.93920000  1.0
  C  C65  1  0.38960000  0.44180000  0.87530000  1.0
  C  C66  1  0.42630000  0.55060000  0.82130000  1.0
  C  C67  1  0.29610000  0.64910000  0.02830000  1.0
  C  C68  1  0.37040000  0.31370000  0.93360000  1.0
  C  C69  1  0.32900000  0.32410000  0.02160000  1.0
  C  C70  1  0.38480000  0.24240000  0.90370000  1.0
  C  C71  1  0.50620000  0.57950000  0.68590000  1.0
  C  C72  1  0.52670000  0.51100000  0.67020000  1.0
  C  C73  1  0.57270000  0.49960000  0.59600000  1.0
  C  C74  1  0.59880000  0.55720000  0.53710000  1.0
  C  C75  1  0.57890000  0.62650000  0.55210000  1.0
  C  C76  1  0.53200000  0.63650000  0.61890000  1.0
  C  C77  1  0.64830000  0.54450000  0.46400000  1.0
  C  C78  1  0.28400000  0.13160000  0.08840000  1.0
  C  C79  1  0.31560000  0.19280000  0.04030000  1.0
  C  C80  1  0.30070000  0.26200000  0.07350000  1.0
  C  C81  1  0.35740000  0.18380000  0.95270000  1.0
  C  C82  1  0.25040000  0.86520000  0.14630000  1.0
  C  C83  1  0.26350000  0.79030000  0.09850000  1.0
  C  C84  1  0.30830000  0.77740000  0.02020000  1.0
  C  C85  1  0.32290000  0.70900000  0.98350000  1.0
  C  C86  1  0.23720000  0.73020000  0.14790000  1.0
  C  C87  1  0.25240000  0.66210000  0.11080000  1.0
  C  C88  1  0.85060000  0.04520000  0.93920000  1.0
  C  C89  1  0.88960000  0.94180000  0.87530000  1.0
  C  C90  1  0.92630000  0.05060000  0.82130000  1.0
  C  C91  1  0.79610000  0.14910000  0.02830000  1.0
  C  C92  1  0.87040000  0.81370000  0.93360000  1.0
  C  C93  1  0.82900000  0.82410000  0.02160000  1.0
  C  C94  1  0.88480000  0.74240000  0.90370000  1.0
  C  C95  1  0.00620000  0.07950000  0.68590000  1.0
  C  C96  1  0.02670000  0.01100000  0.67020000  1.0
  C  C97  1  0.07270000  0.99960000  0.59600000  1.0
  C  C98  1  0.09880000  0.05720000  0.53710000  1.0
  C  C99  1  0.07890000  0.12650000  0.55210000  1.0
  C  C100  1  0.03200000  0.13650000  0.61890000  1.0
  C  C101  1  0.14830000  0.04450000  0.46400000  1.0
  C  C102  1  0.78400000  0.63160000  0.08840000  1.0
  C  C103  1  0.81560000  0.69280000  0.04030000  1.0
  C  C104  1  0.80070000  0.76200000  0.07350000  1.0
  C  C105  1  0.85740000  0.68380000  0.95270000  1.0
  C  C106  1  0.75040000  0.36520000  0.14630000  1.0
  C  C107  1  0.76350000  0.29030000  0.09850000  1.0
  C  C108  1  0.80830000  0.27740000  0.02020000  1.0
  C  C109  1  0.82290000  0.20900000  0.98350000  1.0
  C  C110  1  0.73720000  0.23020000  0.14790000  1.0
  C  C111  1  0.75240000  0.16210000  0.11080000  1.0
  C  C112  1  0.35060000  0.45480000  0.43920000  1.0
  C  C113  1  0.38960000  0.55820000  0.37530000  1.0
  C  C114  1  0.42630000  0.44940000  0.32130000  1.0
  C  C115  1  0.29610000  0.35090000  0.52830000  1.0
  C  C116  1  0.37040000  0.68630000  0.43360000  1.0
  C  C117  1  0.32900000  0.67590000  0.52160000  1.0
  C  C118  1  0.38480000  0.75760000  0.40370000  1.0
  C  C119  1  0.50620000  0.42050000  0.18590000  1.0
  C  C120  1  0.52670000  0.48900000  0.17020000  1.0
  C  C121  1  0.57270000  0.50040000  0.09600000  1.0
  C  C122  1  0.59880000  0.44280000  0.03710000  1.0
  C  C123  1  0.57890000  0.37350000  0.05210000  1.0
  C  C124  1  0.53200000  0.36350000  0.11890000  1.0
  C  C125  1  0.64830000  0.45550000  0.96400000  1.0
  C  C126  1  0.28400000  0.86840000  0.58840000  1.0
  C  C127  1  0.31560000  0.80720000  0.54030000  1.0
  C  C128  1  0.30070000  0.73800000  0.57350000  1.0
  C  C129  1  0.35740000  0.81620000  0.45270000  1.0
  C  C130  1  0.25040000  0.13480000  0.64630000  1.0
  C  C131  1  0.26350000  0.20970000  0.59850000  1.0
  C  C132  1  0.30830000  0.22260000  0.52020000  1.0
  C  C133  1  0.32290000  0.29100000  0.48350000  1.0
  C  C134  1  0.23720000  0.26980000  0.64790000  1.0
  C  C135  1  0.25240000  0.33790000  0.61080000  1.0
  C  C136  1  0.85060000  0.95480000  0.43920000  1.0
  C  C137  1  0.88960000  0.05820000  0.37530000  1.0
  C  C138  1  0.92630000  0.94940000  0.32130000  1.0
  C  C139  1  0.79610000  0.85090000  0.52830000  1.0
  C  C140  1  0.87040000  0.18630000  0.43360000  1.0
  C  C141  1  0.82900000  0.17590000  0.52160000  1.0
  C  C142  1  0.88480000  0.25760000  0.40370000  1.0
  C  C143  1  0.00620000  0.92050000  0.18590000  1.0
  C  C144  1  0.02670000  0.98900000  0.17020000  1.0
  C  C145  1  0.07270000  0.00040000  0.09600000  1.0
  C  C146  1  0.09880000  0.94280000  0.03710000  1.0
  C  C147  1  0.07890000  0.87350000  0.05210000  1.0
  C  C148  1  0.03200000  0.86350000  0.11890000  1.0
  C  C149  1  0.14830000  0.95550000  0.96400000  1.0
  C  C150  1  0.78400000  0.36840000  0.58840000  1.0
  C  C151  1  0.81560000  0.30720000  0.54030000  1.0
  C  C152  1  0.80070000  0.23800000  0.57350000  1.0
  C  C153  1  0.85740000  0.31620000  0.45270000  1.0
  C  C154  1  0.75040000  0.63480000  0.64630000  1.0
  C  C155  1  0.76350000  0.70970000  0.59850000  1.0
  C  C156  1  0.80830000  0.72260000  0.52020000  1.0
  C  C157  1  0.82290000  0.79100000  0.48350000  1.0
  C  C158  1  0.73720000  0.76980000  0.64790000  1.0
  C  C159  1  0.75240000  0.83790000  0.61080000  1.0
  N  N160  1  0.42890000  0.47920000  0.80740000  1.0
  N  N161  1  0.38840000  0.58760000  0.89060000  1.0
  N  N162  1  0.35000000  0.47240000  0.93680000  1.0
  N  N163  1  0.39650000  0.36820000  0.87060000  1.0
  N  N164  1  0.30960000  0.57640000  0.00480000  1.0
  N  N165  1  0.46320000  0.59650000  0.76170000  1.0
  N  N166  1  0.92890000  0.97920000  0.80740000  1.0
  N  N167  1  0.88840000  0.08760000  0.89060000  1.0
  N  N168  1  0.85000000  0.97240000  0.93680000  1.0
  N  N169  1  0.89650000  0.86820000  0.87060000  1.0
  N  N170  1  0.80960000  0.07640000  0.00480000  1.0
  N  N171  1  0.96320000  0.09650000  0.76170000  1.0
  N  N172  1  0.42890000  0.52080000  0.30740000  1.0
  N  N173  1  0.38840000  0.41240000  0.39060000  1.0
  N  N174  1  0.35000000  0.52760000  0.43680000  1.0
  N  N175  1  0.39650000  0.63180000  0.37060000  1.0
  N  N176  1  0.30960000  0.42360000  0.50480000  1.0
  N  N177  1  0.46320000  0.40350000  0.26170000  1.0
  N  N178  1  0.92890000  0.02080000  0.30740000  1.0
  N  N179  1  0.88840000  0.91240000  0.39060000  1.0
  N  N180  1  0.85000000  0.02760000  0.43680000  1.0
  N  N181  1  0.89650000  0.13180000  0.37060000  1.0
  N  N182  1  0.80960000  0.92360000  0.50480000  1.0
  N  N183  1  0.96320000  0.90350000  0.26170000  1.0
  O  O184  1  0.67930000  0.48760000  0.51330000  1.0
  O  O185  1  0.29380000  0.06710000  0.04080000  1.0
  O  O186  1  0.25140000  0.14080000  0.18990000  1.0
  O  O187  1  0.21700000  0.87790000  0.23990000  1.0
  O  O188  1  0.27740000  0.91900000  0.09360000  1.0
  O  O189  1  0.66180000  0.58780000  0.35860000  1.0
  O  O190  1  0.17930000  0.98760000  0.51330000  1.0
  O  O191  1  0.79380000  0.56710000  0.04080000  1.0
  O  O192  1  0.75140000  0.64080000  0.18990000  1.0
  O  O193  1  0.71700000  0.37790000  0.23990000  1.0
  O  O194  1  0.77740000  0.41900000  0.09360000  1.0
  O  O195  1  0.16180000  0.08780000  0.35860000  1.0
  O  O196  1  0.67930000  0.51240000  0.01330000  1.0
  O  O197  1  0.29380000  0.93290000  0.54080000  1.0
  O  O198  1  0.25140000  0.85920000  0.68990000  1.0
  O  O199  1  0.21700000  0.12210000  0.73990000  1.0
  O  O200  1  0.27740000  0.08100000  0.59360000  1.0
  O  O201  1  0.66180000  0.41220000  0.85860000  1.0
  O  O202  1  0.17930000  0.01240000  0.01330000  1.0
  O  O203  1  0.79380000  0.43290000  0.54080000  1.0
  O  O204  1  0.75140000  0.35920000  0.68990000  1.0
  O  O205  1  0.71700000  0.62210000  0.73990000  1.0
  O  O206  1  0.77740000  0.58100000  0.59360000  1.0
  O  O207  1  0.16180000  0.91220000  0.85860000  1.0
