# generated using pymatgen
data_Zn3H8C12N2(OF)4
_symmetry_space_group_name_H-M   'P 1'
_cell_length_a   8.14710000
_cell_length_b   11.69770000
_cell_length_c   11.69770000
_cell_angle_alpha   109.55300000
_cell_angle_beta   104.73400000
_cell_angle_gamma   75.26580000
_symmetry_Int_Tables_number   1
_chemical_formula_structural   Zn3H8C12N2(OF)4
_chemical_formula_sum   'Zn6 H16 C24 N4 O8 F8'
_cell_volume   998.31745079
_cell_formula_units_Z   2
loop_
 _symmetry_equiv_pos_site_id
 _symmetry_equiv_pos_as_xyz
  1  'x, y, z'
loop_
 _atom_site_type_symbol
 _atom_site_label
 _atom_site_symmetry_multiplicity
 _atom_site_fract_x
 _atom_site_fract_y
 _atom_site_fract_z
 _atom_site_occupancy
  Zn  Zn0  1  0.43687000  0.07863000  0.90023000  1.0
  Zn  Zn1  1  0.06313000  0.90023000  0.07863000  1.0
  Zn  Zn2  1  0.56313000  0.92137000  0.09977000  1.0
  Zn  Zn3  1  0.93687000  0.09977000  0.92137000  1.0
  Zn  Zn4  1  0.75000000  0.13198000  0.13198000  1.0
  Zn  Zn5  1  0.25000000  0.86802000  0.86802000  1.0
  H  H6  1  0.76600000  0.68910000  0.96490000  1.0
  H  H7  1  0.52090000  0.74280000  0.22960000  1.0
  H  H8  1  0.59650000  0.53750000  0.22010000  1.0
  H  H9  1  0.84180000  0.48210000  0.94510000  1.0
  H  H10  1  0.73400000  0.96490000  0.68910000  1.0
  H  H11  1  0.97910000  0.22960000  0.74280000  1.0
  H  H12  1  0.90350000  0.22010000  0.53750000  1.0
  H  H13  1  0.65820000  0.94510000  0.48210000  1.0
  H  H14  1  0.23400000  0.31090000  0.03510000  1.0
  H  H15  1  0.47910000  0.25720000  0.77040000  1.0
  H  H16  1  0.40350000  0.46250000  0.77990000  1.0
  H  H17  1  0.15820000  0.51790000  0.05490000  1.0
  H  H18  1  0.26600000  0.03510000  0.31090000  1.0
  H  H19  1  0.02090000  0.77040000  0.25720000  1.0
  H  H20  1  0.09650000  0.77990000  0.46250000  1.0
  H  H21  1  0.34180000  0.05490000  0.51790000  1.0
  C  C22  1  0.73070000  0.65815000  0.01645000  1.0
  C  C23  1  0.58760000  0.68965000  0.17235000  1.0
  C  C24  1  0.63200000  0.56623000  0.16697000  1.0
  C  C25  1  0.77780000  0.53372000  0.00468000  1.0
  C  C26  1  0.72970000  0.48592000  0.08168000  1.0
  C  C27  1  0.78050000  0.34883000  0.06977000  1.0
  C  C28  1  0.76930000  0.01645000  0.65815000  1.0
  C  C29  1  0.91240000  0.17235000  0.68965000  1.0
  C  C30  1  0.86800000  0.16697000  0.56623000  1.0
  C  C31  1  0.72220000  0.00468000  0.53372000  1.0
  C  C32  1  0.77030000  0.08168000  0.48592000  1.0
  C  C33  1  0.71950000  0.06977000  0.34883000  1.0
  C  C34  1  0.26930000  0.34185000  0.98355000  1.0
  C  C35  1  0.41240000  0.31035000  0.82765000  1.0
  C  C36  1  0.36800000  0.43377000  0.83303000  1.0
  C  C37  1  0.22220000  0.46628000  0.99532000  1.0
  C  C38  1  0.27030000  0.51408000  0.91832000  1.0
  C  C39  1  0.21950000  0.65117000  0.93023000  1.0
  C  C40  1  0.23070000  0.98355000  0.34185000  1.0
  C  C41  1  0.08760000  0.82765000  0.31035000  1.0
  C  C42  1  0.13200000  0.83303000  0.43377000  1.0
  C  C43  1  0.27780000  0.99532000  0.46628000  1.0
  C  C44  1  0.22970000  0.91832000  0.51408000  1.0
  C  C45  1  0.28050000  0.93023000  0.65117000  1.0
  N  N46  1  0.63650000  0.73632000  0.09874000  1.0
  N  N47  1  0.86350000  0.09874000  0.73632000  1.0
  N  N48  1  0.36350000  0.26368000  0.90126000  1.0
  N  N49  1  0.13650000  0.90126000  0.26368000  1.0
  O  O50  1  0.72200000  0.31105000  0.13733000  1.0
  O  O51  1  0.87530000  0.28689000  0.99213000  1.0
  O  O52  1  0.77800000  0.13733000  0.31105000  1.0
  O  O53  1  0.62470000  0.99213000  0.28689000  1.0
  O  O54  1  0.27800000  0.68895000  0.86267000  1.0
  O  O55  1  0.12470000  0.71311000  0.00787000  1.0
  O  O56  1  0.22200000  0.86267000  0.68895000  1.0
  O  O57  1  0.37530000  0.00787000  0.71311000  1.0
  F  F58  1  0.50500000  0.10884000  0.09052000  1.0
  F  F59  1  0.69140000  0.08530000  0.92556000  1.0
  F  F60  1  0.99500000  0.09052000  0.10884000  1.0
  F  F61  1  0.80860000  0.92556000  0.08530000  1.0
  F  F62  1  0.49500000  0.89116000  0.90948000  1.0
  F  F63  1  0.30860000  0.91470000  0.07444000  1.0
  F  F64  1  0.00500000  0.90948000  0.89116000  1.0
  F  F65  1  0.19140000  0.07444000  0.91470000  1.0
