# generated using pymatgen
data_TbH3(CO2)3
_symmetry_space_group_name_H-M   'P 1'
_cell_length_a   11.33790000
_cell_length_b   7.16770000
_cell_length_c   6.60800000
_cell_angle_alpha   90.00000000
_cell_angle_beta   109.69000000
_cell_angle_gamma   90.00000000
_symmetry_Int_Tables_number   1
_chemical_formula_structural   TbH3(CO2)3
_chemical_formula_sum   'Tb2 H6 C6 O12'
_cell_volume   505.61080447
_cell_formula_units_Z   2
loop_
 _symmetry_equiv_pos_site_id
 _symmetry_equiv_pos_as_xyz
  1  'x, y, z'
loop_
 _atom_site_type_symbol
 _atom_site_label
 _atom_site_symmetry_multiplicity
 _atom_site_fract_x
 _atom_site_fract_y
 _atom_site_fract_z
 _atom_site_occupancy
  Tb  Tb0  1  0.00000000  0.48740000  0.00000000  1.0
  Tb  Tb1  1  0.50000000  0.98740000  0.00000000  1.0
  H  H2  1  0.19490000  0.83490000  0.89880000  1.0
  H  H3  1  0.69490000  0.33490000  0.89880000  1.0
  H  H4  1  0.80510000  0.83490000  0.10120000  1.0
  H  H5  1  0.30510000  0.33490000  0.10120000  1.0
  H  H6  1  0.00000000  0.42370000  0.50000000  1.0
  H  H7  1  0.50000000  0.92370000  0.50000000  1.0
  C  C8  1  0.23610000  0.78640000  0.03490000  1.0
  C  C9  1  0.73610000  0.28640000  0.03490000  1.0
  C  C10  1  0.76390000  0.78640000  0.96510000  1.0
  C  C11  1  0.26390000  0.28640000  0.96510000  1.0
  C  C12  1  0.00000000  0.55300000  0.50000000  1.0
  C  C13  1  0.50000000  0.05300000  0.50000000  1.0
  O  O14  1  0.17210000  0.68370000  0.11620000  1.0
  O  O15  1  0.00760000  0.63310000  0.33750000  1.0
  O  O16  1  0.34650000  0.82750000  0.11880000  1.0
  O  O17  1  0.67210000  0.18370000  0.11620000  1.0
  O  O18  1  0.50760000  0.13310000  0.33750000  1.0
  O  O19  1  0.84650000  0.32750000  0.11880000  1.0
  O  O20  1  0.82790000  0.68370000  0.88380000  1.0
  O  O21  1  0.99240000  0.63310000  0.66250000  1.0
  O  O22  1  0.65350000  0.82750000  0.88120000  1.0
  O  O23  1  0.32790000  0.18370000  0.88380000  1.0
  O  O24  1  0.49240000  0.13310000  0.66250000  1.0
  O  O25  1  0.15350000  0.32750000  0.88120000  1.0
