# generated using pymatgen
data_AgH4C6NO2
_symmetry_space_group_name_H-M   'P 1'
_cell_length_a   7.24990000
_cell_length_b   23.76250000
_cell_length_c   30.73500000
_cell_angle_alpha   90.00000000
_cell_angle_beta   90.00000000
_cell_angle_gamma   90.00000000
_symmetry_Int_Tables_number   1
_chemical_formula_structural   AgH4C6NO2
_chemical_formula_sum   'Ag32 H128 C192 N32 O64'
_cell_volume   5294.89513783
_cell_formula_units_Z   32
loop_
 _symmetry_equiv_pos_site_id
 _symmetry_equiv_pos_as_xyz
  1  'x, y, z'
loop_
 _atom_site_type_symbol
 _atom_site_label
 _atom_site_symmetry_multiplicity
 _atom_site_fract_x
 _atom_site_fract_y
 _atom_site_fract_z
 _atom_site_occupancy
  Ag  Ag0  1  0.19513000  0.77005000  0.29063000  1.0
  Ag  Ag1  1  0.52526000  0.44231000  0.48402000  1.0
  Ag  Ag2  1  0.69513000  0.27005000  0.79063000  1.0
  Ag  Ag3  1  0.02526000  0.94232000  0.98402000  1.0
  Ag  Ag4  1  0.30487000  0.22995000  0.79063000  1.0
  Ag  Ag5  1  0.97474000  0.55768000  0.98402000  1.0
  Ag  Ag6  1  0.80487000  0.72995000  0.29063000  1.0
  Ag  Ag7  1  0.47474000  0.05769000  0.48402000  1.0
  Ag  Ag8  1  0.80487000  0.27005000  0.20937000  1.0
  Ag  Ag9  1  0.47474000  0.94232000  0.01598000  1.0
  Ag  Ag10  1  0.30487000  0.77005000  0.70937000  1.0
  Ag  Ag11  1  0.97474000  0.44231000  0.51598000  1.0
  Ag  Ag12  1  0.69513000  0.72995000  0.70937000  1.0
  Ag  Ag13  1  0.02526000  0.05769000  0.51598000  1.0
  Ag  Ag14  1  0.19513000  0.22995000  0.20937000  1.0
  Ag  Ag15  1  0.52526000  0.55768000  0.01598000  1.0
  Ag  Ag16  1  0.80487000  0.22995000  0.70937000  1.0
  Ag  Ag17  1  0.47474000  0.55768000  0.51598000  1.0
  Ag  Ag18  1  0.30487000  0.72995000  0.20937000  1.0
  Ag  Ag19  1  0.97474000  0.05769000  0.01598000  1.0
  Ag  Ag20  1  0.69513000  0.77005000  0.20937000  1.0
  Ag  Ag21  1  0.02526000  0.44231000  0.01598000  1.0
  Ag  Ag22  1  0.19513000  0.27005000  0.70937000  1.0
  Ag  Ag23  1  0.52526000  0.94232000  0.51598000  1.0
  Ag  Ag24  1  0.19513000  0.72995000  0.79063000  1.0
  Ag  Ag25  1  0.52526000  0.05769000  0.98402000  1.0
  Ag  Ag26  1  0.69513000  0.22995000  0.29063000  1.0
  Ag  Ag27  1  0.02526000  0.55768000  0.48402000  1.0
  Ag  Ag28  1  0.30487000  0.27005000  0.29063000  1.0
  Ag  Ag29  1  0.97474000  0.94232000  0.48402000  1.0
  Ag  Ag30  1  0.80487000  0.77005000  0.79063000  1.0
  Ag  Ag31  1  0.47474000  0.44231000  0.98402000  1.0
  H  H32  1  0.95480000  0.86970000  0.32920000  1.0
  H  H33  1  0.88430000  0.91990000  0.39000000  1.0
  H  H34  1  0.17120000  0.81640000  0.46000000  1.0
  H  H35  1  0.24560000  0.76630000  0.39940000  1.0
  H  H36  1  0.64530000  0.58170000  0.25830000  1.0
  H  H37  1  0.79680000  0.50900000  0.29300000  1.0
  H  H38  1  0.77230000  0.49850000  0.36710000  1.0
  H  H39  1  0.43700000  0.63210000  0.37280000  1.0
  H  H40  1  0.45480000  0.36970000  0.82920000  1.0
  H  H41  1  0.38430000  0.41990000  0.89000000  1.0
  H  H42  1  0.67120000  0.31640000  0.96000000  1.0
  H  H43  1  0.74560000  0.26630000  0.89940000  1.0
  H  H44  1  0.14530000  0.08170000  0.75830000  1.0
  H  H45  1  0.29680000  0.00900000  0.79300000  1.0
  H  H46  1  0.27230000  0.99850000  0.86710000  1.0
  H  H47  1  0.93700000  0.13210000  0.87280000  1.0
  H  H48  1  0.54520000  0.13030000  0.82920000  1.0
  H  H49  1  0.61570000  0.08010000  0.89000000  1.0
  H  H50  1  0.32880000  0.18360000  0.96000000  1.0
  H  H51  1  0.25440000  0.23370000  0.89940000  1.0
  H  H52  1  0.85470000  0.41830000  0.75830000  1.0
  H  H53  1  0.70320000  0.49100000  0.79300000  1.0
  H  H54  1  0.72770000  0.50150000  0.86710000  1.0
  H  H55  1  0.06300000  0.36790000  0.87280000  1.0
  H  H56  1  0.04520000  0.63030000  0.32920000  1.0
  H  H57  1  0.11570000  0.58010000  0.39000000  1.0
  H  H58  1  0.82880000  0.68360000  0.46000000  1.0
  H  H59  1  0.75440000  0.73370000  0.39940000  1.0
  H  H60  1  0.35470000  0.91830000  0.25830000  1.0
  H  H61  1  0.20320000  0.99100000  0.29300000  1.0
  H  H62  1  0.22770000  0.00150000  0.36710000  1.0
  H  H63  1  0.56300000  0.86790000  0.37280000  1.0
  H  H64  1  0.04520000  0.36970000  0.17080000  1.0
  H  H65  1  0.11570000  0.41990000  0.11000000  1.0
  H  H66  1  0.82880000  0.31640000  0.04000000  1.0
  H  H67  1  0.75440000  0.26630000  0.10060000  1.0
  H  H68  1  0.35470000  0.08170000  0.24170000  1.0
  H  H69  1  0.20320000  0.00900000  0.20700000  1.0
  H  H70  1  0.22770000  0.99850000  0.13290000  1.0
  H  H71  1  0.56300000  0.13210000  0.12720000  1.0
  H  H72  1  0.54520000  0.86970000  0.67080000  1.0
  H  H73  1  0.61570000  0.91990000  0.61000000  1.0
  H  H74  1  0.32880000  0.81640000  0.54000000  1.0
  H  H75  1  0.25440000  0.76630000  0.60060000  1.0
  H  H76  1  0.85470000  0.58170000  0.74170000  1.0
  H  H77  1  0.70320000  0.50900000  0.70700000  1.0
  H  H78  1  0.72770000  0.49850000  0.63290000  1.0
  H  H79  1  0.06300000  0.63210000  0.62720000  1.0
  H  H80  1  0.45480000  0.63030000  0.67080000  1.0
  H  H81  1  0.38430000  0.58010000  0.61000000  1.0
  H  H82  1  0.67120000  0.68360000  0.54000000  1.0
  H  H83  1  0.74560000  0.73370000  0.60060000  1.0
  H  H84  1  0.14530000  0.91830000  0.74170000  1.0
  H  H85  1  0.29680000  0.99100000  0.70700000  1.0
  H  H86  1  0.27230000  0.00150000  0.63290000  1.0
  H  H87  1  0.93700000  0.86790000  0.62720000  1.0
  H  H88  1  0.95480000  0.13030000  0.17080000  1.0
  H  H89  1  0.88430000  0.08010000  0.11000000  1.0
  H  H90  1  0.17120000  0.18360000  0.04000000  1.0
  H  H91  1  0.24560000  0.23370000  0.10060000  1.0
  H  H92  1  0.64530000  0.41830000  0.24170000  1.0
  H  H93  1  0.79680000  0.49100000  0.20700000  1.0
  H  H94  1  0.77230000  0.50150000  0.13290000  1.0
  H  H95  1  0.43700000  0.36790000  0.12720000  1.0
  H  H96  1  0.04520000  0.13030000  0.67080000  1.0
  H  H97  1  0.11570000  0.08010000  0.61000000  1.0
  H  H98  1  0.82880000  0.18360000  0.54000000  1.0
  H  H99  1  0.75440000  0.23370000  0.60060000  1.0
  H  H100  1  0.35470000  0.41830000  0.74170000  1.0
  H  H101  1  0.20320000  0.49100000  0.70700000  1.0
  H  H102  1  0.22770000  0.50150000  0.63290000  1.0
  H  H103  1  0.56300000  0.36790000  0.62720000  1.0
  H  H104  1  0.54520000  0.63030000  0.17080000  1.0
  H  H105  1  0.61570000  0.58010000  0.11000000  1.0
  H  H106  1  0.32880000  0.68360000  0.04000000  1.0
  H  H107  1  0.25440000  0.73370000  0.10060000  1.0
  H  H108  1  0.85470000  0.91830000  0.24170000  1.0
  H  H109  1  0.70320000  0.99100000  0.20700000  1.0
  H  H110  1  0.72770000  0.00150000  0.13290000  1.0
  H  H111  1  0.06300000  0.86790000  0.12720000  1.0
  H  H112  1  0.45480000  0.86970000  0.17080000  1.0
  H  H113  1  0.38430000  0.91990000  0.11000000  1.0
  H  H114  1  0.67120000  0.81640000  0.04000000  1.0
  H  H115  1  0.74560000  0.76630000  0.10060000  1.0
  H  H116  1  0.14530000  0.58170000  0.24170000  1.0
  H  H117  1  0.29680000  0.50900000  0.20700000  1.0
  H  H118  1  0.27230000  0.49850000  0.13290000  1.0
  H  H119  1  0.93700000  0.63210000  0.12720000  1.0
  H  H120  1  0.95480000  0.36970000  0.67080000  1.0
  H  H121  1  0.88430000  0.41990000  0.61000000  1.0
  H  H122  1  0.17120000  0.31640000  0.54000000  1.0
  H  H123  1  0.24560000  0.26630000  0.60060000  1.0
  H  H124  1  0.64530000  0.08170000  0.74170000  1.0
  H  H125  1  0.79680000  0.00900000  0.70700000  1.0
  H  H126  1  0.77230000  0.99850000  0.63290000  1.0
  H  H127  1  0.43700000  0.13210000  0.62720000  1.0
  H  H128  1  0.95480000  0.63030000  0.82920000  1.0
  H  H129  1  0.88430000  0.58010000  0.89000000  1.0
  H  H130  1  0.17120000  0.68360000  0.96000000  1.0
  H  H131  1  0.24560000  0.73370000  0.89940000  1.0
  H  H132  1  0.64530000  0.91830000  0.75830000  1.0
  H  H133  1  0.79680000  0.99100000  0.79300000  1.0
  H  H134  1  0.77230000  0.00150000  0.86710000  1.0
  H  H135  1  0.43700000  0.86790000  0.87280000  1.0
  H  H136  1  0.45480000  0.13030000  0.32920000  1.0
  H  H137  1  0.38430000  0.08010000  0.39000000  1.0
  H  H138  1  0.67120000  0.18360000  0.46000000  1.0
  H  H139  1  0.74560000  0.23370000  0.39940000  1.0
  H  H140  1  0.14530000  0.41830000  0.25830000  1.0
  H  H141  1  0.29680000  0.49100000  0.29300000  1.0
  H  H142  1  0.27230000  0.50150000  0.36710000  1.0
  H  H143  1  0.93700000  0.36790000  0.37280000  1.0
  H  H144  1  0.54520000  0.36970000  0.32920000  1.0
  H  H145  1  0.61570000  0.41990000  0.39000000  1.0
  H  H146  1  0.32880000  0.31640000  0.46000000  1.0
  H  H147  1  0.25440000  0.26630000  0.39940000  1.0
  H  H148  1  0.85470000  0.08170000  0.25830000  1.0
  H  H149  1  0.70320000  0.00900000  0.29300000  1.0
  H  H150  1  0.72770000  0.99850000  0.36710000  1.0
  H  H151  1  0.06300000  0.13210000  0.37280000  1.0
  H  H152  1  0.04520000  0.86970000  0.82920000  1.0
  H  H153  1  0.11570000  0.91990000  0.89000000  1.0
  H  H154  1  0.82880000  0.81640000  0.96000000  1.0
  H  H155  1  0.75440000  0.76630000  0.89940000  1.0
  H  H156  1  0.35470000  0.58170000  0.75830000  1.0
  H  H157  1  0.20320000  0.50900000  0.79300000  1.0
  H  H158  1  0.22770000  0.49850000  0.86710000  1.0
  H  H159  1  0.56300000  0.63210000  0.87280000  1.0
  C  C160  1  0.00200000  0.85815000  0.35583000  1.0
  C  C161  1  0.95940000  0.88834000  0.39260000  1.0
  C  C162  1  0.12640000  0.82831000  0.43313000  1.0
  C  C163  1  0.17090000  0.79795000  0.39670000  1.0
  C  C164  1  0.43240000  0.66341000  0.29011000  1.0
  C  C165  1  0.52650000  0.61456000  0.31192000  1.0
  C  C166  1  0.63410000  0.57741000  0.28830000  1.0
  C  C167  1  0.72470000  0.53393000  0.30904000  1.0
  C  C168  1  0.70860000  0.52736000  0.35324000  1.0
  C  C169  1  0.59870000  0.56320000  0.37756000  1.0
  C  C170  1  0.50910000  0.60727000  0.35673000  1.0
  C  C171  1  0.57500000  0.55381000  0.42545000  1.0
  C  C172  1  0.50200000  0.35815000  0.85583000  1.0
  C  C173  1  0.45940000  0.38834000  0.89260000  1.0
  C  C174  1  0.62640000  0.32831000  0.93313000  1.0
  C  C175  1  0.67090000  0.29795000  0.89670000  1.0
  C  C176  1  0.93240000  0.16341000  0.79011000  1.0
  C  C177  1  0.02650000  0.11456000  0.81192000  1.0
  C  C178  1  0.13410000  0.07741000  0.78830000  1.0
  C  C179  1  0.22470000  0.03393000  0.80904000  1.0
  C  C180  1  0.20860000  0.02736000  0.85324000  1.0
  C  C181  1  0.09870000  0.06320000  0.87756000  1.0
  C  C182  1  0.00910000  0.10727000  0.85673000  1.0
  C  C183  1  0.07500000  0.05381000  0.92545000  1.0
  C  C184  1  0.49800000  0.14185000  0.85583000  1.0
  C  C185  1  0.54060000  0.11166000  0.89260000  1.0
  C  C186  1  0.37360000  0.17169000  0.93313000  1.0
  C  C187  1  0.32910000  0.20205000  0.89670000  1.0
  C  C188  1  0.06760000  0.33659000  0.79011000  1.0
  C  C189  1  0.97350000  0.38544000  0.81192000  1.0
  C  C190  1  0.86590000  0.42259000  0.78830000  1.0
  C  C191  1  0.77530000  0.46607000  0.80904000  1.0
  C  C192  1  0.79140000  0.47264000  0.85324000  1.0
  C  C193  1  0.90130000  0.43680000  0.87756000  1.0
  C  C194  1  0.99090000  0.39273000  0.85673000  1.0
  C  C195  1  0.92500000  0.44619000  0.92545000  1.0
  C  C196  1  0.99800000  0.64185000  0.35583000  1.0
  C  C197  1  0.04060000  0.61166000  0.39260000  1.0
  C  C198  1  0.87360000  0.67169000  0.43313000  1.0
  C  C199  1  0.82910000  0.70205000  0.39670000  1.0
  C  C200  1  0.56760000  0.83659000  0.29011000  1.0
  C  C201  1  0.47350000  0.88544000  0.31192000  1.0
  C  C202  1  0.36590000  0.92259000  0.28830000  1.0
  C  C203  1  0.27530000  0.96607000  0.30904000  1.0
  C  C204  1  0.29140000  0.97264000  0.35324000  1.0
  C  C205  1  0.40130000  0.93680000  0.37756000  1.0
  C  C206  1  0.49090000  0.89273000  0.35673000  1.0
  C  C207  1  0.42500000  0.94619000  0.42545000  1.0
  C  C208  1  0.99800000  0.35815000  0.14417000  1.0
  C  C209  1  0.04060000  0.38834000  0.10740000  1.0
  C  C210  1  0.87360000  0.32831000  0.06687000  1.0
  C  C211  1  0.82910000  0.29795000  0.10330000  1.0
  C  C212  1  0.56760000  0.16341000  0.20989000  1.0
  C  C213  1  0.47350000  0.11456000  0.18808000  1.0
  C  C214  1  0.36590000  0.07741000  0.21170000  1.0
  C  C215  1  0.27530000  0.03393000  0.19096000  1.0
  C  C216  1  0.29140000  0.02736000  0.14676000  1.0
  C  C217  1  0.40130000  0.06320000  0.12244000  1.0
  C  C218  1  0.49090000  0.10727000  0.14327000  1.0
  C  C219  1  0.42500000  0.05381000  0.07455000  1.0
  C  C220  1  0.49800000  0.85815000  0.64417000  1.0
  C  C221  1  0.54060000  0.88834000  0.60740000  1.0
  C  C222  1  0.37360000  0.82831000  0.56687000  1.0
  C  C223  1  0.32910000  0.79795000  0.60330000  1.0
  C  C224  1  0.06760000  0.66341000  0.70989000  1.0
  C  C225  1  0.97350000  0.61456000  0.68808000  1.0
  C  C226  1  0.86590000  0.57741000  0.71170000  1.0
  C  C227  1  0.77530000  0.53393000  0.69096000  1.0
  C  C228  1  0.79140000  0.52736000  0.64676000  1.0
  C  C229  1  0.90130000  0.56320000  0.62244000  1.0
  C  C230  1  0.99090000  0.60727000  0.64327000  1.0
  C  C231  1  0.92500000  0.55381000  0.57455000  1.0
  C  C232  1  0.50200000  0.64185000  0.64417000  1.0
  C  C233  1  0.45940000  0.61166000  0.60740000  1.0
  C  C234  1  0.62640000  0.67169000  0.56687000  1.0
  C  C235  1  0.67090000  0.70205000  0.60330000  1.0
  C  C236  1  0.93240000  0.83659000  0.70989000  1.0
  C  C237  1  0.02650000  0.88544000  0.68808000  1.0
  C  C238  1  0.13410000  0.92259000  0.71170000  1.0
  C  C239  1  0.22470000  0.96607000  0.69096000  1.0
  C  C240  1  0.20860000  0.97264000  0.64676000  1.0
  C  C241  1  0.09870000  0.93680000  0.62244000  1.0
  C  C242  1  0.00910000  0.89273000  0.64327000  1.0
  C  C243  1  0.07500000  0.94619000  0.57455000  1.0
  C  C244  1  0.00200000  0.14185000  0.14417000  1.0
  C  C245  1  0.95940000  0.11166000  0.10740000  1.0
  C  C246  1  0.12640000  0.17169000  0.06687000  1.0
  C  C247  1  0.17090000  0.20205000  0.10330000  1.0
  C  C248  1  0.43240000  0.33659000  0.20989000  1.0
  C  C249  1  0.52650000  0.38544000  0.18808000  1.0
  C  C250  1  0.63410000  0.42259000  0.21170000  1.0
  C  C251  1  0.72470000  0.46607000  0.19096000  1.0
  C  C252  1  0.70860000  0.47264000  0.14676000  1.0
  C  C253  1  0.59870000  0.43680000  0.12244000  1.0
  C  C254  1  0.50910000  0.39273000  0.14327000  1.0
  C  C255  1  0.57500000  0.44619000  0.07455000  1.0
  C  C256  1  0.99800000  0.14185000  0.64417000  1.0
  C  C257  1  0.04060000  0.11166000  0.60740000  1.0
  C  C258  1  0.87360000  0.17169000  0.56687000  1.0
  C  C259  1  0.82910000  0.20205000  0.60330000  1.0
  C  C260  1  0.56760000  0.33659000  0.70989000  1.0
  C  C261  1  0.47350000  0.38544000  0.68808000  1.0
  C  C262  1  0.36590000  0.42259000  0.71170000  1.0
  C  C263  1  0.27530000  0.46607000  0.69096000  1.0
  C  C264  1  0.29140000  0.47264000  0.64676000  1.0
  C  C265  1  0.40130000  0.43680000  0.62244000  1.0
  C  C266  1  0.49090000  0.39273000  0.64327000  1.0
  C  C267  1  0.42500000  0.44619000  0.57455000  1.0
  C  C268  1  0.49800000  0.64185000  0.14417000  1.0
  C  C269  1  0.54060000  0.61166000  0.10740000  1.0
  C  C270  1  0.37360000  0.67169000  0.06687000  1.0
  C  C271  1  0.32910000  0.70205000  0.10330000  1.0
  C  C272  1  0.06760000  0.83659000  0.20989000  1.0
  C  C273  1  0.97350000  0.88544000  0.18808000  1.0
  C  C274  1  0.86590000  0.92259000  0.21170000  1.0
  C  C275  1  0.77530000  0.96607000  0.19096000  1.0
  C  C276  1  0.79140000  0.97264000  0.14676000  1.0
  C  C277  1  0.90130000  0.93680000  0.12244000  1.0
  C  C278  1  0.99090000  0.89273000  0.14327000  1.0
  C  C279  1  0.92500000  0.94619000  0.07455000  1.0
  C  C280  1  0.50200000  0.85815000  0.14417000  1.0
  C  C281  1  0.45940000  0.88834000  0.10740000  1.0
  C  C282  1  0.62640000  0.82831000  0.06687000  1.0
  C  C283  1  0.67090000  0.79795000  0.10330000  1.0
  C  C284  1  0.93240000  0.66341000  0.20989000  1.0
  C  C285  1  0.02650000  0.61456000  0.18808000  1.0
  C  C286  1  0.13410000  0.57741000  0.21170000  1.0
  C  C287  1  0.22470000  0.53393000  0.19096000  1.0
  C  C288  1  0.20860000  0.52736000  0.14676000  1.0
  C  C289  1  0.09870000  0.56320000  0.12244000  1.0
  C  C290  1  0.00910000  0.60727000  0.14327000  1.0
  C  C291  1  0.07500000  0.55381000  0.07455000  1.0
  C  C292  1  0.00200000  0.35815000  0.64417000  1.0
  C  C293  1  0.95940000  0.38834000  0.60740000  1.0
  C  C294  1  0.12640000  0.32831000  0.56687000  1.0
  C  C295  1  0.17090000  0.29795000  0.60330000  1.0
  C  C296  1  0.43240000  0.16341000  0.70989000  1.0
  C  C297  1  0.52650000  0.11456000  0.68808000  1.0
  C  C298  1  0.63410000  0.07741000  0.71170000  1.0
  C  C299  1  0.72470000  0.03393000  0.69096000  1.0
  C  C300  1  0.70860000  0.02736000  0.64676000  1.0
  C  C301  1  0.59870000  0.06320000  0.62244000  1.0
  C  C302  1  0.50910000  0.10727000  0.64327000  1.0
  C  C303  1  0.57500000  0.05381000  0.57455000  1.0
  C  C304  1  0.00200000  0.64185000  0.85583000  1.0
  C  C305  1  0.95940000  0.61166000  0.89260000  1.0
  C  C306  1  0.12640000  0.67169000  0.93313000  1.0
  C  C307  1  0.17090000  0.70205000  0.89670000  1.0
  C  C308  1  0.43240000  0.83659000  0.79011000  1.0
  C  C309  1  0.52650000  0.88544000  0.81192000  1.0
  C  C310  1  0.63410000  0.92259000  0.78830000  1.0
  C  C311  1  0.72470000  0.96607000  0.80904000  1.0
  C  C312  1  0.70860000  0.97264000  0.85324000  1.0
  C  C313  1  0.59870000  0.93680000  0.87756000  1.0
  C  C314  1  0.50910000  0.89273000  0.85673000  1.0
  C  C315  1  0.57500000  0.94619000  0.92545000  1.0
  C  C316  1  0.50200000  0.14185000  0.35583000  1.0
  C  C317  1  0.45940000  0.11166000  0.39260000  1.0
  C  C318  1  0.62640000  0.17169000  0.43313000  1.0
  C  C319  1  0.67090000  0.20205000  0.39670000  1.0
  C  C320  1  0.93240000  0.33659000  0.29011000  1.0
  C  C321  1  0.02650000  0.38544000  0.31192000  1.0
  C  C322  1  0.13410000  0.42259000  0.28830000  1.0
  C  C323  1  0.22470000  0.46607000  0.30904000  1.0
  C  C324  1  0.20860000  0.47264000  0.35324000  1.0
  C  C325  1  0.09870000  0.43680000  0.37756000  1.0
  C  C326  1  0.00910000  0.39273000  0.35673000  1.0
  C  C327  1  0.07500000  0.44619000  0.42545000  1.0
  C  C328  1  0.49800000  0.35815000  0.35583000  1.0
  C  C329  1  0.54060000  0.38834000  0.39260000  1.0
  C  C330  1  0.37360000  0.32831000  0.43313000  1.0
  C  C331  1  0.32910000  0.29795000  0.39670000  1.0
  C  C332  1  0.06760000  0.16341000  0.29011000  1.0
  C  C333  1  0.97350000  0.11456000  0.31192000  1.0
  C  C334  1  0.86590000  0.07741000  0.28830000  1.0
  C  C335  1  0.77530000  0.03393000  0.30904000  1.0
  C  C336  1  0.79140000  0.02736000  0.35324000  1.0
  C  C337  1  0.90130000  0.06320000  0.37756000  1.0
  C  C338  1  0.99090000  0.10727000  0.35673000  1.0
  C  C339  1  0.92500000  0.05381000  0.42545000  1.0
  C  C340  1  0.99800000  0.85815000  0.85583000  1.0
  C  C341  1  0.04060000  0.88834000  0.89260000  1.0
  C  C342  1  0.87360000  0.82831000  0.93313000  1.0
  C  C343  1  0.82910000  0.79795000  0.89670000  1.0
  C  C344  1  0.56760000  0.66341000  0.79011000  1.0
  C  C345  1  0.47350000  0.61456000  0.81192000  1.0
  C  C346  1  0.36590000  0.57741000  0.78830000  1.0
  C  C347  1  0.27530000  0.53393000  0.80904000  1.0
  C  C348  1  0.29140000  0.52736000  0.85324000  1.0
  C  C349  1  0.40130000  0.56320000  0.87756000  1.0
  C  C350  1  0.49090000  0.60727000  0.85673000  1.0
  C  C351  1  0.42500000  0.55381000  0.92545000  1.0
  N  N352  1  0.10950000  0.81274000  0.35751000  1.0
  N  N353  1  0.02160000  0.87411000  0.43150000  1.0
  N  N354  1  0.60950000  0.31274000  0.85751000  1.0
  N  N355  1  0.52160000  0.37411000  0.93150000  1.0
  N  N356  1  0.39050000  0.18726000  0.85751000  1.0
  N  N357  1  0.47840000  0.12589000  0.93150000  1.0
  N  N358  1  0.89050000  0.68726000  0.35751000  1.0
  N  N359  1  0.97840000  0.62589000  0.43150000  1.0
  N  N360  1  0.89050000  0.31274000  0.14249000  1.0
  N  N361  1  0.97840000  0.37411000  0.06850000  1.0
  N  N362  1  0.39050000  0.81274000  0.64249000  1.0
  N  N363  1  0.47840000  0.87411000  0.56850000  1.0
  N  N364  1  0.60950000  0.68726000  0.64249000  1.0
  N  N365  1  0.52160000  0.62589000  0.56850000  1.0
  N  N366  1  0.10950000  0.18726000  0.14249000  1.0
  N  N367  1  0.02160000  0.12589000  0.06850000  1.0
  N  N368  1  0.89050000  0.18726000  0.64249000  1.0
  N  N369  1  0.97840000  0.12589000  0.56850000  1.0
  N  N370  1  0.39050000  0.68726000  0.14249000  1.0
  N  N371  1  0.47840000  0.62589000  0.06850000  1.0
  N  N372  1  0.60950000  0.81274000  0.14249000  1.0
  N  N373  1  0.52160000  0.87411000  0.06850000  1.0
  N  N374  1  0.10950000  0.31274000  0.64249000  1.0
  N  N375  1  0.02160000  0.37411000  0.56850000  1.0
  N  N376  1  0.10950000  0.68726000  0.85751000  1.0
  N  N377  1  0.02160000  0.62589000  0.93150000  1.0
  N  N378  1  0.60950000  0.18726000  0.35751000  1.0
  N  N379  1  0.52160000  0.12589000  0.43150000  1.0
  N  N380  1  0.39050000  0.31274000  0.35751000  1.0
  N  N381  1  0.47840000  0.37411000  0.43150000  1.0
  N  N382  1  0.89050000  0.81274000  0.85751000  1.0
  N  N383  1  0.97840000  0.87411000  0.93150000  1.0
  O  O384  1  0.34240000  0.69581000  0.31389000  1.0
  O  O385  1  0.45170000  0.66770000  0.24974000  1.0
  O  O386  1  0.47610000  0.58800000  0.44647000  1.0
  O  O387  1  0.65470000  0.51204000  0.44185000  1.0
  O  O388  1  0.84240000  0.19581000  0.81389000  1.0
  O  O389  1  0.95170000  0.16770000  0.74974000  1.0
  O  O390  1  0.97610000  0.08800000  0.94647000  1.0
  O  O391  1  0.15470000  0.01204000  0.94185000  1.0
  O  O392  1  0.15760000  0.30419000  0.81389000  1.0
  O  O393  1  0.04830000  0.33230000  0.74974000  1.0
  O  O394  1  0.02390000  0.41200000  0.94647000  1.0
  O  O395  1  0.84530000  0.48796000  0.94185000  1.0
  O  O396  1  0.65760000  0.80419000  0.31389000  1.0
  O  O397  1  0.54830000  0.83230000  0.24974000  1.0
  O  O398  1  0.52390000  0.91200000  0.44647000  1.0
  O  O399  1  0.34530000  0.98796000  0.44185000  1.0
  O  O400  1  0.65760000  0.19581000  0.18611000  1.0
  O  O401  1  0.54830000  0.16770000  0.25026000  1.0
  O  O402  1  0.52390000  0.08800000  0.05353000  1.0
  O  O403  1  0.34530000  0.01204000  0.05815000  1.0
  O  O404  1  0.15760000  0.69581000  0.68611000  1.0
  O  O405  1  0.04830000  0.66770000  0.75026000  1.0
  O  O406  1  0.02390000  0.58800000  0.55353000  1.0
  O  O407  1  0.84530000  0.51204000  0.55815000  1.0
  O  O408  1  0.84240000  0.80419000  0.68611000  1.0
  O  O409  1  0.95170000  0.83230000  0.75026000  1.0
  O  O410  1  0.97610000  0.91200000  0.55353000  1.0
  O  O411  1  0.15470000  0.98796000  0.55815000  1.0
  O  O412  1  0.34240000  0.30419000  0.18611000  1.0
  O  O413  1  0.45170000  0.33230000  0.25026000  1.0
  O  O414  1  0.47610000  0.41200000  0.05353000  1.0
  O  O415  1  0.65470000  0.48796000  0.05815000  1.0
  O  O416  1  0.65760000  0.30419000  0.68611000  1.0
  O  O417  1  0.54830000  0.33230000  0.75026000  1.0
  O  O418  1  0.52390000  0.41200000  0.55353000  1.0
  O  O419  1  0.34530000  0.48796000  0.55815000  1.0
  O  O420  1  0.15760000  0.80419000  0.18611000  1.0
  O  O421  1  0.04830000  0.83230000  0.25026000  1.0
  O  O422  1  0.02390000  0.91200000  0.05353000  1.0
  O  O423  1  0.84530000  0.98796000  0.05815000  1.0
  O  O424  1  0.84240000  0.69581000  0.18611000  1.0
  O  O425  1  0.95170000  0.66770000  0.25026000  1.0
  O  O426  1  0.97610000  0.58800000  0.05353000  1.0
  O  O427  1  0.15470000  0.51204000  0.05815000  1.0
  O  O428  1  0.34240000  0.19581000  0.68611000  1.0
  O  O429  1  0.45170000  0.16770000  0.75026000  1.0
  O  O430  1  0.47610000  0.08800000  0.55353000  1.0
  O  O431  1  0.65470000  0.01204000  0.55815000  1.0
  O  O432  1  0.34240000  0.80419000  0.81389000  1.0
  O  O433  1  0.45170000  0.83230000  0.74974000  1.0
  O  O434  1  0.47610000  0.91200000  0.94647000  1.0
  O  O435  1  0.65470000  0.98796000  0.94185000  1.0
  O  O436  1  0.84240000  0.30419000  0.31389000  1.0
  O  O437  1  0.95170000  0.33230000  0.24974000  1.0
  O  O438  1  0.97610000  0.41200000  0.44647000  1.0
  O  O439  1  0.15470000  0.48796000  0.44185000  1.0
  O  O440  1  0.15760000  0.19581000  0.31389000  1.0
  O  O441  1  0.04830000  0.16770000  0.24974000  1.0
  O  O442  1  0.02390000  0.08800000  0.44647000  1.0
  O  O443  1  0.84530000  0.01204000  0.44185000  1.0
  O  O444  1  0.65760000  0.69581000  0.81389000  1.0
  O  O445  1  0.54830000  0.66770000  0.74974000  1.0
  O  O446  1  0.52390000  0.58800000  0.94647000  1.0
  O  O447  1  0.34530000  0.51204000  0.94185000  1.0
