# generated using pymatgen
data_Gd4H22C12N3O16
_symmetry_space_group_name_H-M   'P 1'
_cell_length_a   11.53770000
_cell_length_b   20.72380000
_cell_length_c   23.58440000
_cell_angle_alpha   90.00000000
_cell_angle_beta   90.00000000
_cell_angle_gamma   90.00000000
_symmetry_Int_Tables_number   1
_chemical_formula_structural   Gd4H22C12N3O16
_chemical_formula_sum   'Gd16 H88 C48 N12 O64'
_cell_volume   5639.14766153
_cell_formula_units_Z   4
loop_
 _symmetry_equiv_pos_site_id
 _symmetry_equiv_pos_as_xyz
  1  'x, y, z'
loop_
 _atom_site_type_symbol
 _atom_site_label
 _atom_site_symmetry_multiplicity
 _atom_site_fract_x
 _atom_site_fract_y
 _atom_site_fract_z
 _atom_site_occupancy
  Gd  Gd0  1  0.58132000  0.96430000  0.26826000  1.0
  Gd  Gd1  1  0.91644000  0.97318000  0.26563000  1.0
  Gd  Gd2  1  0.75622000  0.87716000  0.15220000  1.0
  Gd  Gd3  1  0.73558000  0.06678000  0.15727000  1.0
  Gd  Gd4  1  0.91868000  0.03570000  0.76826000  1.0
  Gd  Gd5  1  0.58356000  0.02682000  0.76563000  1.0
  Gd  Gd6  1  0.74378000  0.12284000  0.65220000  1.0
  Gd  Gd7  1  0.76442000  0.93322000  0.65727000  1.0
  Gd  Gd8  1  0.41868000  0.46430000  0.23174000  1.0
  Gd  Gd9  1  0.08356000  0.47318000  0.23437000  1.0
  Gd  Gd10  1  0.24378000  0.37716000  0.34780000  1.0
  Gd  Gd11  1  0.26442000  0.56678000  0.34273000  1.0
  Gd  Gd12  1  0.08132000  0.53570000  0.73174000  1.0
  Gd  Gd13  1  0.41644000  0.52682000  0.73437000  1.0
  Gd  Gd14  1  0.25622000  0.62284000  0.84780000  1.0
  Gd  Gd15  1  0.23558000  0.43322000  0.84273000  1.0
  H  H16  1  0.85960000  0.91510000  0.50620000  1.0
  H  H17  1  0.92320000  0.93990000  0.45760000  1.0
  H  H18  1  0.86400000  0.87820000  0.45380000  1.0
  H  H19  1  0.68650000  0.92690000  0.46090000  1.0
  H  H20  1  0.34960000  0.71830000  0.29180000  1.0
  H  H21  1  0.33910000  0.76720000  0.24790000  1.0
  H  H22  1  0.37880000  0.78510000  0.30420000  1.0
  H  H23  1  0.81800000  0.04250000  0.45730000  1.0
  H  H24  1  0.68250000  0.04030000  0.45650000  1.0
  H  H25  1  0.86660000  0.71470000  0.18930000  1.0
  H  H26  1  0.85050000  0.66666667  0.23360000  1.0
  H  H27  1  0.90360000  0.64850000  0.18000000  1.0
  H  H28  1  0.54650000  0.73060000  0.29430000  1.0
  H  H29  1  0.58810000  0.68140000  0.20790000  1.0
  H  H30  1  0.46130000  0.69540000  0.18780000  1.0
  H  H31  1  0.06660000  0.70800000  0.19790000  1.0
  H  H32  1  0.95830000  0.74260000  0.30070000  1.0
  H  H33  1  0.08530000  0.76170000  0.28490000  1.0
  H  H34  1  0.75760000  0.86650000  0.27490000  1.0
  H  H35  1  0.74120000  0.07030000  0.28230000  1.0
  H  H36  1  0.92970000  0.97860000  0.14450000  1.0
  H  H37  1  0.55610000  0.96720000  0.14700000  1.0
  H  H38  1  0.64040000  0.08490000  0.00620000  1.0
  H  H39  1  0.57680000  0.06010000  0.95760000  1.0
  H  H40  1  0.63600000  0.12180000  0.95380000  1.0
  H  H41  1  0.81350000  0.07310000  0.96090000  1.0
  H  H42  1  0.15040000  0.28170000  0.79180000  1.0
  H  H43  1  0.16090000  0.23280000  0.74790000  1.0
  H  H44  1  0.12120000  0.21490000  0.80420000  1.0
  H  H45  1  0.68200000  0.95750000  0.95730000  1.0
  H  H46  1  0.81750000  0.95970000  0.95650000  1.0
  H  H47  1  0.63340000  0.28530000  0.68930000  1.0
  H  H48  1  0.64950000  0.33333333  0.73360000  1.0
  H  H49  1  0.59640000  0.35150000  0.68000000  1.0
  H  H50  1  0.95350000  0.26940000  0.79430000  1.0
  H  H51  1  0.91190000  0.31860000  0.70790000  1.0
  H  H52  1  0.03870000  0.30460000  0.68780000  1.0
  H  H53  1  0.43340000  0.29200000  0.69790000  1.0
  H  H54  1  0.54170000  0.25740000  0.80070000  1.0
  H  H55  1  0.41470000  0.23830000  0.78490000  1.0
  H  H56  1  0.74240000  0.13350000  0.77490000  1.0
  H  H57  1  0.75880000  0.92970000  0.78230000  1.0
  H  H58  1  0.57030000  0.02140000  0.64450000  1.0
  H  H59  1  0.94390000  0.03280000  0.64700000  1.0
  H  H60  1  0.14040000  0.41510000  0.99380000  1.0
  H  H61  1  0.07680000  0.43990000  0.04240000  1.0
  H  H62  1  0.13600000  0.37820000  0.04620000  1.0
  H  H63  1  0.31350000  0.42690000  0.03910000  1.0
  H  H64  1  0.65040000  0.21830000  0.20820000  1.0
  H  H65  1  0.66090000  0.26720000  0.25210000  1.0
  H  H66  1  0.62120000  0.28510000  0.19580000  1.0
  H  H67  1  0.18200000  0.54250000  0.04270000  1.0
  H  H68  1  0.31750000  0.54030000  0.04350000  1.0
  H  H69  1  0.13340000  0.21470000  0.31070000  1.0
  H  H70  1  0.14950000  0.16670000  0.26640000  1.0
  H  H71  1  0.09640000  0.14850000  0.32000000  1.0
  H  H72  1  0.45350000  0.23060000  0.20570000  1.0
  H  H73  1  0.41190000  0.18140000  0.29210000  1.0
  H  H74  1  0.53870000  0.19540000  0.31220000  1.0
  H  H75  1  0.93340000  0.20800000  0.30210000  1.0
  H  H76  1  0.04170000  0.24260000  0.19930000  1.0
  H  H77  1  0.91470000  0.26170000  0.21510000  1.0
  H  H78  1  0.24240000  0.36650000  0.22510000  1.0
  H  H79  1  0.25880000  0.57030000  0.21770000  1.0
  H  H80  1  0.07030000  0.47860000  0.35550000  1.0
  H  H81  1  0.44390000  0.46720000  0.35300000  1.0
  H  H82  1  0.35960000  0.58490000  0.49380000  1.0
  H  H83  1  0.42320000  0.56010000  0.54240000  1.0
  H  H84  1  0.36400000  0.62180000  0.54620000  1.0
  H  H85  1  0.18650000  0.57310000  0.53910000  1.0
  H  H86  1  0.84960000  0.78170000  0.70820000  1.0
  H  H87  1  0.83910000  0.73280000  0.75210000  1.0
  H  H88  1  0.87880000  0.71490000  0.69580000  1.0
  H  H89  1  0.31800000  0.45750000  0.54270000  1.0
  H  H90  1  0.18250000  0.45970000  0.54350000  1.0
  H  H91  1  0.36660000  0.78530000  0.81070000  1.0
  H  H92  1  0.35050000  0.83330000  0.76640000  1.0
  H  H93  1  0.40360000  0.85150000  0.82000000  1.0
  H  H94  1  0.04650000  0.76940000  0.70570000  1.0
  H  H95  1  0.08810000  0.81860000  0.79210000  1.0
  H  H96  1  0.96130000  0.80460000  0.81220000  1.0
  H  H97  1  0.56660000  0.79200000  0.80210000  1.0
  H  H98  1  0.45830000  0.75740000  0.69930000  1.0
  H  H99  1  0.58530000  0.73830000  0.71510000  1.0
  H  H100  1  0.25760000  0.63350000  0.72510000  1.0
  H  H101  1  0.24120000  0.42970000  0.71770000  1.0
  H  H102  1  0.42970000  0.52140000  0.85550000  1.0
  H  H103  1  0.05610000  0.53280000  0.85300000  1.0
  C  C104  1  0.75580000  0.95550000  0.38380000  1.0
  C  C105  1  0.75520000  0.95080000  0.44840000  1.0
  C  C106  1  0.75110000  0.01920000  0.47140000  1.0
  C  C107  1  0.74920000  0.02460000  0.53560000  1.0
  C  C108  1  0.55450000  0.80440000  0.23640000  1.0
  C  C109  1  0.50260000  0.74200000  0.26020000  1.0
  C  C110  1  0.50870000  0.68600000  0.22080000  1.0
  C  C111  1  0.46940000  0.62180000  0.24590000  1.0
  C  C112  1  0.06700000  0.63630000  0.25750000  1.0
  C  C113  1  0.01620000  0.69610000  0.22970000  1.0
  C  C114  1  0.00880000  0.75380000  0.26940000  1.0
  C  C115  1  0.96520000  0.81580000  0.24350000  1.0
  C  C116  1  0.74420000  0.04450000  0.88380000  1.0
  C  C117  1  0.74480000  0.04920000  0.94840000  1.0
  C  C118  1  0.74890000  0.98080000  0.97140000  1.0
  C  C119  1  0.75080000  0.97540000  0.03560000  1.0
  C  C120  1  0.94550000  0.19560000  0.73640000  1.0
  C  C121  1  0.99740000  0.25800000  0.76020000  1.0
  C  C122  1  0.99130000  0.31400000  0.72080000  1.0
  C  C123  1  0.03060000  0.37820000  0.74590000  1.0
  C  C124  1  0.43300000  0.36370000  0.75750000  1.0
  C  C125  1  0.48380000  0.30390000  0.72970000  1.0
  C  C126  1  0.49120000  0.24620000  0.76940000  1.0
  C  C127  1  0.53480000  0.18420000  0.74350000  1.0
  C  C128  1  0.24420000  0.45550000  0.11620000  1.0
  C  C129  1  0.24480000  0.45080000  0.05160000  1.0
  C  C130  1  0.24890000  0.51920000  0.02860000  1.0
  C  C131  1  0.25080000  0.52460000  0.96440000  1.0
  C  C132  1  0.44550000  0.30440000  0.26360000  1.0
  C  C133  1  0.49740000  0.24200000  0.23980000  1.0
  C  C134  1  0.49130000  0.18600000  0.27920000  1.0
  C  C135  1  0.53060000  0.12180000  0.25410000  1.0
  C  C136  1  0.93300000  0.13630000  0.24250000  1.0
  C  C137  1  0.98380000  0.19610000  0.27030000  1.0
  C  C138  1  0.99120000  0.25380000  0.23060000  1.0
  C  C139  1  0.03480000  0.31580000  0.25650000  1.0
  C  C140  1  0.25580000  0.54450000  0.61620000  1.0
  C  C141  1  0.25520000  0.54920000  0.55160000  1.0
  C  C142  1  0.25110000  0.48080000  0.52860000  1.0
  C  C143  1  0.24920000  0.47540000  0.46440000  1.0
  C  C144  1  0.05450000  0.69560000  0.76360000  1.0
  C  C145  1  0.00260000  0.75800000  0.73980000  1.0
  C  C146  1  0.00870000  0.81400000  0.77920000  1.0
  C  C147  1  0.96940000  0.87820000  0.75410000  1.0
  C  C148  1  0.56700000  0.86370000  0.74250000  1.0
  C  C149  1  0.51620000  0.80390000  0.77030000  1.0
  C  C150  1  0.50880000  0.74620000  0.73060000  1.0
  C  C151  1  0.46520000  0.68420000  0.75650000  1.0
  N  N152  1  0.86100000  0.91770000  0.46850000  1.0
  N  N153  1  0.38010000  0.75440000  0.27780000  1.0
  N  N154  1  0.89680000  0.67980000  0.20560000  1.0
  N  N155  1  0.63900000  0.08230000  0.96850000  1.0
  N  N156  1  0.11990000  0.24560000  0.77780000  1.0
  N  N157  1  0.60320000  0.32020000  0.70560000  1.0
  N  N158  1  0.13900000  0.41770000  0.03150000  1.0
  N  N159  1  0.61990000  0.25440000  0.22220000  1.0
  N  N160  1  0.10320000  0.17980000  0.29440000  1.0
  N  N161  1  0.36100000  0.58230000  0.53150000  1.0
  N  N162  1  0.88010000  0.74560000  0.72220000  1.0
  N  N163  1  0.39680000  0.82020000  0.79440000  1.0
  O  O164  1  0.75360000  0.90511000  0.25095000  1.0
  O  O165  1  0.74340000  0.03340000  0.25634000  1.0
  O  O166  1  0.86180000  0.97540000  0.16925000  1.0
  O  O167  1  0.62580000  0.96850000  0.17074000  1.0
  O  O168  1  0.85310000  0.95760000  0.35980000  1.0
  O  O169  1  0.65920000  0.95890000  0.36080000  1.0
  O  O170  1  0.74470000  0.07990000  0.55682000  1.0
  O  O171  1  0.75420000  0.97280000  0.56317000  1.0
  O  O172  1  0.51340000  0.85680000  0.25590000  1.0
  O  O173  1  0.63300000  0.79850000  0.20170000  1.0
  O  O174  1  0.41240000  0.62430000  0.29220000  1.0
  O  O175  1  0.49620000  0.57140000  0.22090000  1.0
  O  O176  1  0.02320000  0.58330000  0.24300000  1.0
  O  O177  1  0.14980000  0.64450000  0.28870000  1.0
  O  O178  1  0.99410000  0.86710000  0.26680000  1.0
  O  O179  1  0.89750000  0.81120000  0.20170000  1.0
  O  O180  1  0.74640000  0.09489000  0.75095000  1.0
  O  O181  1  0.75660000  0.96660000  0.75634000  1.0
  O  O182  1  0.63820000  0.02460000  0.66925000  1.0
  O  O183  1  0.87420000  0.03150000  0.67074000  1.0
  O  O184  1  0.64690000  0.04240000  0.85980000  1.0
  O  O185  1  0.84080000  0.04110000  0.86080000  1.0
  O  O186  1  0.75530000  0.92010000  0.05682000  1.0
  O  O187  1  0.74580000  0.02720000  0.06317000  1.0
  O  O188  1  0.98660000  0.14320000  0.75590000  1.0
  O  O189  1  0.86700000  0.20150000  0.70170000  1.0
  O  O190  1  0.08760000  0.37570000  0.79220000  1.0
  O  O191  1  0.00380000  0.42860000  0.72090000  1.0
  O  O192  1  0.47680000  0.41670000  0.74300000  1.0
  O  O193  1  0.35020000  0.35550000  0.78870000  1.0
  O  O194  1  0.50590000  0.13290000  0.76680000  1.0
  O  O195  1  0.60250000  0.18880000  0.70170000  1.0
  O  O196  1  0.24640000  0.40511000  0.24905000  1.0
  O  O197  1  0.25660000  0.53340000  0.24366000  1.0
  O  O198  1  0.13820000  0.47540000  0.33075000  1.0
  O  O199  1  0.37420000  0.46850000  0.32926000  1.0
  O  O200  1  0.14690000  0.45760000  0.14020000  1.0
  O  O201  1  0.34080000  0.45890000  0.13920000  1.0
  O  O202  1  0.25530000  0.57990000  0.94318000  1.0
  O  O203  1  0.24580000  0.47280000  0.93683000  1.0
  O  O204  1  0.48660000  0.35680000  0.24410000  1.0
  O  O205  1  0.36700000  0.29850000  0.29830000  1.0
  O  O206  1  0.58760000  0.12430000  0.20780000  1.0
  O  O207  1  0.50380000  0.07140000  0.27910000  1.0
  O  O208  1  0.97680000  0.08330000  0.25700000  1.0
  O  O209  1  0.85020000  0.14450000  0.21130000  1.0
  O  O210  1  0.00590000  0.36710000  0.23320000  1.0
  O  O211  1  0.10250000  0.31120000  0.29830000  1.0
  O  O212  1  0.25360000  0.59489000  0.74905000  1.0
  O  O213  1  0.24340000  0.46660000  0.74366000  1.0
  O  O214  1  0.36180000  0.52460000  0.83075000  1.0
  O  O215  1  0.12580000  0.53150000  0.82926000  1.0
  O  O216  1  0.35310000  0.54240000  0.64020000  1.0
  O  O217  1  0.15920000  0.54110000  0.63920000  1.0
  O  O218  1  0.24470000  0.42010000  0.44318000  1.0
  O  O219  1  0.25420000  0.52720000  0.43683000  1.0
  O  O220  1  0.01340000  0.64320000  0.74410000  1.0
  O  O221  1  0.13300000  0.70150000  0.79830000  1.0
  O  O222  1  0.91240000  0.87570000  0.70780000  1.0
  O  O223  1  0.99620000  0.92860000  0.77910000  1.0
  O  O224  1  0.52320000  0.91670000  0.75700000  1.0
  O  O225  1  0.64980000  0.85550000  0.71130000  1.0
  O  O226  1  0.49410000  0.63290000  0.73320000  1.0
  O  O227  1  0.39750000  0.68880000  0.79830000  1.0
