# generated using pymatgen
data_Mn4H64C64N11O16
_symmetry_space_group_name_H-M   'P 1'
_cell_length_a   15.25800000
_cell_length_b   21.33300000
_cell_length_c   29.26700000
_cell_angle_alpha   90.00000000
_cell_angle_beta   90.00000000
_cell_angle_gamma   90.00000000
_symmetry_Int_Tables_number   1
_chemical_formula_structural   Mn4H64C64N11O16
_chemical_formula_sum   'Mn16 H256 C256 N44 O64'
_cell_volume   9526.37671604
_cell_formula_units_Z   4
loop_
 _symmetry_equiv_pos_site_id
 _symmetry_equiv_pos_as_xyz
  1  'x, y, z'
loop_
 _atom_site_type_symbol
 _atom_site_label
 _atom_site_symmetry_multiplicity
 _atom_site_fract_x
 _atom_site_fract_y
 _atom_site_fract_z
 _atom_site_occupancy
  Mn  Mn0  1  0.36145000  0.27305000  0.23334000  1.0
  Mn  Mn1  1  0.12909000  0.27696000  0.17966000  1.0
  Mn  Mn2  1  0.17252000  0.50936000  0.15734000  1.0
  Mn  Mn3  1  0.33289000  0.50327000  0.25526000  1.0
  Mn  Mn4  1  0.63855000  0.72695000  0.73334000  1.0
  Mn  Mn5  1  0.87091000  0.72304000  0.67966000  1.0
  Mn  Mn6  1  0.82748000  0.49064000  0.65734000  1.0
  Mn  Mn7  1  0.66711000  0.49673000  0.75526000  1.0
  Mn  Mn8  1  0.86145000  0.22695000  0.23334000  1.0
  Mn  Mn9  1  0.62909000  0.22304000  0.17966000  1.0
  Mn  Mn10  1  0.67252000  0.99064000  0.15734000  1.0
  Mn  Mn11  1  0.83289000  0.99673000  0.25526000  1.0
  Mn  Mn12  1  0.13855000  0.77305000  0.73334000  1.0
  Mn  Mn13  1  0.37091000  0.77696000  0.67966000  1.0
  Mn  Mn14  1  0.32748000  0.00936000  0.65734000  1.0
  Mn  Mn15  1  0.16711000  0.00327000  0.75526000  1.0
  H  H16  1  0.29220000  0.13630000  0.32380000  1.0
  H  H17  1  0.25510000  0.05320000  0.37000000  1.0
  H  H18  1  0.00930000  0.06100000  0.33020000  1.0
  H  H19  1  0.04260000  0.14140000  0.28230000  1.0
  H  H20  1  0.06480000  0.97160000  0.37410000  1.0
  H  H21  1  0.16150000  0.97270000  0.39270000  1.0
  H  H22  1  0.02140000  0.04330000  0.42570000  1.0
  H  H23  1  0.11860000  0.05780000  0.44000000  1.0
  H  H24  1  0.03590000  0.93940000  0.45770000  1.0
  H  H25  1  0.13160000  0.95630000  0.47360000  1.0
  H  H26  1  0.07340000  0.03940000  0.51970000  1.0
  H  H27  1  0.97810000  0.02040000  0.50470000  1.0
  H  H28  1  0.14850000  0.97780000  0.57690000  1.0
  H  H29  1  0.13700000  0.90900000  0.63630000  1.0
  H  H30  1  0.91400000  0.84540000  0.58390000  1.0
  H  H31  1  0.92420000  0.92140000  0.52810000  1.0
  H  H32  1  0.43980000  0.13600000  0.13910000  1.0
  H  H33  1  0.48080000  0.06180000  0.08590000  1.0
  H  H34  1  0.28700000  0.10440000  0.00820000  1.0
  H  H35  1  0.23770000  0.17420000  0.06160000  1.0
  H  H36  1  0.47500000  0.01020000  0.02090000  1.0
  H  H37  1  0.37790000  0.99740000  0.00550000  1.0
  H  H38  1  0.48590000  0.09050000  0.97110000  1.0
  H  H39  1  0.38690000  0.08310000  0.95750000  1.0
  H  H40  1  0.48180000  0.03500000  0.90170000  1.0
  H  H41  1  0.51600000  0.98880000  0.93930000  1.0
  H  H42  1  0.34490000  0.99350000  0.91290000  1.0
  H  H43  1  0.38890000  0.94250000  0.94390000  1.0
  H  H44  1  0.49650000  0.87270000  0.90700000  1.0
  H  H45  1  0.53040000  0.81220000  0.84550000  1.0
  H  H46  1  0.38860000  0.92700000  0.76760000  1.0
  H  H47  1  0.35310000  0.98580000  0.83190000  1.0
  H  H48  1  0.12990000  0.27070000  0.06690000  1.0
  H  H49  1  0.14160000  0.23270000  0.99300000  1.0
  H  H50  1  0.19570000  0.40040000  0.94580000  1.0
  H  H51  1  0.19400000  0.44040000  0.01910000  1.0
  H  H52  1  0.21850000  0.24760000  0.92060000  1.0
  H  H53  1  0.21410000  0.31480000  0.89880000  1.0
  H  H54  1  0.06170000  0.30770000  0.89240000  1.0
  H  H55  1  0.06170000  0.24320000  0.91820000  1.0
  H  H56  1  0.13370000  0.26350000  0.82990000  1.0
  H  H57  1  0.14590000  0.20000000  0.85600000  1.0
  H  H58  1  0.03510000  0.18050000  0.80780000  1.0
  H  H59  1  0.98790000  0.19060000  0.85490000  1.0
  H  H60  1  0.03720000  0.26180000  0.75400000  1.0
  H  H61  1  0.96360000  0.34410000  0.71940000  1.0
  H  H62  1  0.81550000  0.35930000  0.83350000  1.0
  H  H63  1  0.89320000  0.27630000  0.86350000  1.0
  H  H64  1  0.31040000  0.26360000  0.34520000  1.0
  H  H65  1  0.28890000  0.22660000  0.41740000  1.0
  H  H66  1  0.30580000  0.39750000  0.46570000  1.0
  H  H67  1  0.32860000  0.43790000  0.39470000  1.0
  H  H68  1  0.24590000  0.31580000  0.51390000  1.0
  H  H69  1  0.24480000  0.24680000  0.49500000  1.0
  H  H70  1  0.40000000  0.24280000  0.50190000  1.0
  H  H71  1  0.39940000  0.31100000  0.52230000  1.0
  H  H72  1  0.31950000  0.27780000  0.58480000  1.0
  H  H73  1  0.30870000  0.21080000  0.56360000  1.0
  H  H74  1  0.46410000  0.19930000  0.57040000  1.0
  H  H75  1  0.41230000  0.19890000  0.61670000  1.0
  H  H76  1  0.41930000  0.29040000  0.66520000  1.0
  H  H77  1  0.50430000  0.37010000  0.69330000  1.0
  H  H78  1  0.65060000  0.35910000  0.58020000  1.0
  H  H79  1  0.56440000  0.27960000  0.55370000  1.0
  H  H80  1  0.70780000  0.86370000  0.82380000  1.0
  H  H81  1  0.74490000  0.94680000  0.87000000  1.0
  H  H82  1  0.99070000  0.93900000  0.83020000  1.0
  H  H83  1  0.95740000  0.85860000  0.78230000  1.0
  H  H84  1  0.93520000  0.02840000  0.87410000  1.0
  H  H85  1  0.83850000  0.02730000  0.89270000  1.0
  H  H86  1  0.97860000  0.95670000  0.92570000  1.0
  H  H87  1  0.88140000  0.94220000  0.94000000  1.0
  H  H88  1  0.96410000  0.06060000  0.95770000  1.0
  H  H89  1  0.86840000  0.04370000  0.97360000  1.0
  H  H90  1  0.92660000  0.96060000  0.01970000  1.0
  H  H91  1  0.02190000  0.97960000  0.00470000  1.0
  H  H92  1  0.85150000  0.02220000  0.07690000  1.0
  H  H93  1  0.86300000  0.09100000  0.13630000  1.0
  H  H94  1  0.08600000  0.15460000  0.08390000  1.0
  H  H95  1  0.07580000  0.07860000  0.02810000  1.0
  H  H96  1  0.56020000  0.86400000  0.63910000  1.0
  H  H97  1  0.51920000  0.93820000  0.58590000  1.0
  H  H98  1  0.71300000  0.89560000  0.50820000  1.0
  H  H99  1  0.76230000  0.82580000  0.56160000  1.0
  H  H100  1  0.52500000  0.98980000  0.52090000  1.0
  H  H101  1  0.62210000  0.00260000  0.50550000  1.0
  H  H102  1  0.51410000  0.90950000  0.47110000  1.0
  H  H103  1  0.61310000  0.91690000  0.45750000  1.0
  H  H104  1  0.51820000  0.96500000  0.40170000  1.0
  H  H105  1  0.48400000  0.01120000  0.43930000  1.0
  H  H106  1  0.65510000  0.00650000  0.41290000  1.0
  H  H107  1  0.61110000  0.05750000  0.44390000  1.0
  H  H108  1  0.50350000  0.12730000  0.40700000  1.0
  H  H109  1  0.46960000  0.18780000  0.34550000  1.0
  H  H110  1  0.61140000  0.07300000  0.26760000  1.0
  H  H111  1  0.64690000  0.01420000  0.33190000  1.0
  H  H112  1  0.87010000  0.72930000  0.56690000  1.0
  H  H113  1  0.85840000  0.76730000  0.49300000  1.0
  H  H114  1  0.80430000  0.59960000  0.44580000  1.0
  H  H115  1  0.80600000  0.55960000  0.51910000  1.0
  H  H116  1  0.78150000  0.75240000  0.42060000  1.0
  H  H117  1  0.78590000  0.68520000  0.39880000  1.0
  H  H118  1  0.93830000  0.69230000  0.39240000  1.0
  H  H119  1  0.93830000  0.75680000  0.41820000  1.0
  H  H120  1  0.86630000  0.73650000  0.32990000  1.0
  H  H121  1  0.85410000  0.80000000  0.35600000  1.0
  H  H122  1  0.96490000  0.81950000  0.30780000  1.0
  H  H123  1  0.01210000  0.80940000  0.35490000  1.0
  H  H124  1  0.96280000  0.73820000  0.25400000  1.0
  H  H125  1  0.03640000  0.65590000  0.21940000  1.0
  H  H126  1  0.18450000  0.64070000  0.33350000  1.0
  H  H127  1  0.10680000  0.72370000  0.36350000  1.0
  H  H128  1  0.68960000  0.73640000  0.84520000  1.0
  H  H129  1  0.71110000  0.77340000  0.91740000  1.0
  H  H130  1  0.69420000  0.60250000  0.96570000  1.0
  H  H131  1  0.67140000  0.56210000  0.89470000  1.0
  H  H132  1  0.75410000  0.68420000  0.01390000  1.0
  H  H133  1  0.75520000  0.75320000  0.99500000  1.0
  H  H134  1  0.60000000  0.75720000  0.00190000  1.0
  H  H135  1  0.60060000  0.68900000  0.02230000  1.0
  H  H136  1  0.68050000  0.72220000  0.08480000  1.0
  H  H137  1  0.69130000  0.78920000  0.06360000  1.0
  H  H138  1  0.53590000  0.80070000  0.07040000  1.0
  H  H139  1  0.58770000  0.80110000  0.11670000  1.0
  H  H140  1  0.58070000  0.70960000  0.16520000  1.0
  H  H141  1  0.49570000  0.62990000  0.19330000  1.0
  H  H142  1  0.34940000  0.64090000  0.08020000  1.0
  H  H143  1  0.43560000  0.72040000  0.05370000  1.0
  H  H144  1  0.79220000  0.36370000  0.32380000  1.0
  H  H145  1  0.75510000  0.44680000  0.37000000  1.0
  H  H146  1  0.50930000  0.43900000  0.33020000  1.0
  H  H147  1  0.54260000  0.35860000  0.28230000  1.0
  H  H148  1  0.56480000  0.52840000  0.37410000  1.0
  H  H149  1  0.66150000  0.52730000  0.39270000  1.0
  H  H150  1  0.52140000  0.45670000  0.42570000  1.0
  H  H151  1  0.61860000  0.44220000  0.44000000  1.0
  H  H152  1  0.53590000  0.56060000  0.45770000  1.0
  H  H153  1  0.63160000  0.54370000  0.47360000  1.0
  H  H154  1  0.57340000  0.46060000  0.51970000  1.0
  H  H155  1  0.47810000  0.47960000  0.50470000  1.0
  H  H156  1  0.64850000  0.52220000  0.57690000  1.0
  H  H157  1  0.63700000  0.59100000  0.63630000  1.0
  H  H158  1  0.41400000  0.65460000  0.58390000  1.0
  H  H159  1  0.42420000  0.57860000  0.52810000  1.0
  H  H160  1  0.93980000  0.36400000  0.13910000  1.0
  H  H161  1  0.98080000  0.43820000  0.08590000  1.0
  H  H162  1  0.78700000  0.39560000  0.00820000  1.0
  H  H163  1  0.73770000  0.32580000  0.06160000  1.0
  H  H164  1  0.97500000  0.48980000  0.02090000  1.0
  H  H165  1  0.87790000  0.50260000  0.00550000  1.0
  H  H166  1  0.98590000  0.40950000  0.97110000  1.0
  H  H167  1  0.88690000  0.41690000  0.95750000  1.0
  H  H168  1  0.98180000  0.46500000  0.90170000  1.0
  H  H169  1  0.01600000  0.51120000  0.93930000  1.0
  H  H170  1  0.84490000  0.50650000  0.91290000  1.0
  H  H171  1  0.88890000  0.55750000  0.94390000  1.0
  H  H172  1  0.99650000  0.62730000  0.90700000  1.0
  H  H173  1  0.03040000  0.68780000  0.84550000  1.0
  H  H174  1  0.88860000  0.57300000  0.76760000  1.0
  H  H175  1  0.85310000  0.51420000  0.83190000  1.0
  H  H176  1  0.62990000  0.22930000  0.06690000  1.0
  H  H177  1  0.64160000  0.26730000  0.99300000  1.0
  H  H178  1  0.69570000  0.09960000  0.94580000  1.0
  H  H179  1  0.69400000  0.05960000  0.01910000  1.0
  H  H180  1  0.71850000  0.25240000  0.92060000  1.0
  H  H181  1  0.71410000  0.18520000  0.89880000  1.0
  H  H182  1  0.56170000  0.19230000  0.89240000  1.0
  H  H183  1  0.56170000  0.25680000  0.91820000  1.0
  H  H184  1  0.63370000  0.23650000  0.82990000  1.0
  H  H185  1  0.64590000  0.30000000  0.85600000  1.0
  H  H186  1  0.53510000  0.31950000  0.80780000  1.0
  H  H187  1  0.48790000  0.30940000  0.85490000  1.0
  H  H188  1  0.53720000  0.23820000  0.75400000  1.0
  H  H189  1  0.46360000  0.15590000  0.71940000  1.0
  H  H190  1  0.31550000  0.14070000  0.83350000  1.0
  H  H191  1  0.39320000  0.22370000  0.86350000  1.0
  H  H192  1  0.81040000  0.23640000  0.34520000  1.0
  H  H193  1  0.78890000  0.27340000  0.41740000  1.0
  H  H194  1  0.80580000  0.10250000  0.46570000  1.0
  H  H195  1  0.82860000  0.06210000  0.39470000  1.0
  H  H196  1  0.74590000  0.18420000  0.51390000  1.0
  H  H197  1  0.74480000  0.25320000  0.49500000  1.0
  H  H198  1  0.90000000  0.25720000  0.50190000  1.0
  H  H199  1  0.89940000  0.18900000  0.52230000  1.0
  H  H200  1  0.81950000  0.22220000  0.58480000  1.0
  H  H201  1  0.80870000  0.28920000  0.56360000  1.0
  H  H202  1  0.96410000  0.30070000  0.57040000  1.0
  H  H203  1  0.91230000  0.30110000  0.61670000  1.0
  H  H204  1  0.91930000  0.20960000  0.66520000  1.0
  H  H205  1  0.00430000  0.12990000  0.69330000  1.0
  H  H206  1  0.15060000  0.14090000  0.58020000  1.0
  H  H207  1  0.06440000  0.22040000  0.55370000  1.0
  H  H208  1  0.20780000  0.63630000  0.82380000  1.0
  H  H209  1  0.24490000  0.55320000  0.87000000  1.0
  H  H210  1  0.49070000  0.56100000  0.83020000  1.0
  H  H211  1  0.45740000  0.64140000  0.78230000  1.0
  H  H212  1  0.43520000  0.47160000  0.87410000  1.0
  H  H213  1  0.33850000  0.47270000  0.89270000  1.0
  H  H214  1  0.47860000  0.54330000  0.92570000  1.0
  H  H215  1  0.38140000  0.55780000  0.94000000  1.0
  H  H216  1  0.46410000  0.43940000  0.95770000  1.0
  H  H217  1  0.36840000  0.45630000  0.97360000  1.0
  H  H218  1  0.42660000  0.53940000  0.01970000  1.0
  H  H219  1  0.52190000  0.52040000  0.00470000  1.0
  H  H220  1  0.35150000  0.47780000  0.07690000  1.0
  H  H221  1  0.36300000  0.40900000  0.13630000  1.0
  H  H222  1  0.58600000  0.34540000  0.08390000  1.0
  H  H223  1  0.57580000  0.42140000  0.02810000  1.0
  H  H224  1  0.06020000  0.63600000  0.63910000  1.0
  H  H225  1  0.01920000  0.56180000  0.58590000  1.0
  H  H226  1  0.21300000  0.60440000  0.50820000  1.0
  H  H227  1  0.26230000  0.67420000  0.56160000  1.0
  H  H228  1  0.02500000  0.51020000  0.52090000  1.0
  H  H229  1  0.12210000  0.49740000  0.50550000  1.0
  H  H230  1  0.01410000  0.59050000  0.47110000  1.0
  H  H231  1  0.11310000  0.58310000  0.45750000  1.0
  H  H232  1  0.01820000  0.53500000  0.40170000  1.0
  H  H233  1  0.98400000  0.48880000  0.43930000  1.0
  H  H234  1  0.15510000  0.49350000  0.41290000  1.0
  H  H235  1  0.11110000  0.44250000  0.44390000  1.0
  H  H236  1  0.00350000  0.37270000  0.40700000  1.0
  H  H237  1  0.96960000  0.31220000  0.34550000  1.0
  H  H238  1  0.11140000  0.42700000  0.26760000  1.0
  H  H239  1  0.14690000  0.48580000  0.33190000  1.0
  H  H240  1  0.37010000  0.77070000  0.56690000  1.0
  H  H241  1  0.35840000  0.73270000  0.49300000  1.0
  H  H242  1  0.30430000  0.90040000  0.44580000  1.0
  H  H243  1  0.30600000  0.94040000  0.51910000  1.0
  H  H244  1  0.28150000  0.74760000  0.42060000  1.0
  H  H245  1  0.28590000  0.81480000  0.39880000  1.0
  H  H246  1  0.43830000  0.80770000  0.39240000  1.0
  H  H247  1  0.43830000  0.74320000  0.41820000  1.0
  H  H248  1  0.36630000  0.76350000  0.32990000  1.0
  H  H249  1  0.35410000  0.70000000  0.35600000  1.0
  H  H250  1  0.46490000  0.68050000  0.30780000  1.0
  H  H251  1  0.51210000  0.69060000  0.35490000  1.0
  H  H252  1  0.46280000  0.76180000  0.25400000  1.0
  H  H253  1  0.53640000  0.84410000  0.21940000  1.0
  H  H254  1  0.68450000  0.85930000  0.33350000  1.0
  H  H255  1  0.60680000  0.77630000  0.36350000  1.0
  H  H256  1  0.18960000  0.76360000  0.84520000  1.0
  H  H257  1  0.21110000  0.72660000  0.91740000  1.0
  H  H258  1  0.19420000  0.89750000  0.96570000  1.0
  H  H259  1  0.17140000  0.93790000  0.89470000  1.0
  H  H260  1  0.25410000  0.81580000  0.01390000  1.0
  H  H261  1  0.25520000  0.74680000  0.99500000  1.0
  H  H262  1  0.10000000  0.74280000  0.00190000  1.0
  H  H263  1  0.10060000  0.81100000  0.02230000  1.0
  H  H264  1  0.18050000  0.77780000  0.08480000  1.0
  H  H265  1  0.19130000  0.71080000  0.06360000  1.0
  H  H266  1  0.03590000  0.69930000  0.07040000  1.0
  H  H267  1  0.08770000  0.69890000  0.11670000  1.0
  H  H268  1  0.08070000  0.79040000  0.16520000  1.0
  H  H269  1  0.99570000  0.87010000  0.19330000  1.0
  H  H270  1  0.84940000  0.85910000  0.08020000  1.0
  H  H271  1  0.93560000  0.77960000  0.05370000  1.0
  C  C272  1  0.19440000  0.20090000  0.26550000  1.0
  C  C273  1  0.16960000  0.14820000  0.29810000  1.0
  C  C274  1  0.23490000  0.12140000  0.32470000  1.0
  C  C275  1  0.21190000  0.07210000  0.35240000  1.0
  C  C276  1  0.06630000  0.07630000  0.32870000  1.0
  C  C277  1  0.08630000  0.12420000  0.30050000  1.0
  C  C278  1  0.10990000  0.99820000  0.38730000  1.0
  C  C279  1  0.07890000  0.02490000  0.43020000  1.0
  C  C280  1  0.07380000  0.97320000  0.46760000  1.0
  C  C281  1  0.03650000  0.00450000  0.51080000  1.0
  C  C282  1  0.09940000  0.95230000  0.57950000  1.0
  C  C283  1  0.09360000  0.91000000  0.61400000  1.0
  C  C284  1  0.02590000  0.86960000  0.61630000  1.0
  C  C285  1  0.96110000  0.87310000  0.58350000  1.0
  C  C286  1  0.96770000  0.91840000  0.55020000  1.0
  C  C287  1  0.01770000  0.82060000  0.65440000  1.0
  C  C288  1  0.29360000  0.20250000  0.14470000  1.0
  C  C289  1  0.32820000  0.15880000  0.10720000  1.0
  C  C290  1  0.40530000  0.12840000  0.11350000  1.0
  C  C291  1  0.43100000  0.08590000  0.08050000  1.0
  C  C292  1  0.31750000  0.10980000  0.03540000  1.0
  C  C293  1  0.28790000  0.15090000  0.06770000  1.0
  C  C294  1  0.42190000  0.02980000  0.00960000  1.0
  C  C295  1  0.43890000  0.06040000  0.96700000  1.0
  C  C296  1  0.46520000  0.01220000  0.92910000  1.0
  C  C297  1  0.39860000  0.97050000  0.91830000  1.0
  C  C298  1  0.47320000  0.88310000  0.87860000  1.0
  C  C299  1  0.49470000  0.84720000  0.84180000  1.0
  C  C300  1  0.46340000  0.86290000  0.79920000  1.0
  C  C301  1  0.41030000  0.91520000  0.79600000  1.0
  C  C302  1  0.38860000  0.95050000  0.83430000  1.0
  C  C303  1  0.48820000  0.82450000  0.75800000  1.0
  C  C304  1  0.15690000  0.38580000  0.09960000  1.0
  C  C305  1  0.15970000  0.35970000  0.05090000  1.0
  C  C306  1  0.14460000  0.29740000  0.04300000  1.0
  C  C307  1  0.15170000  0.27500000  0.99870000  1.0
  C  C308  1  0.18500000  0.37410000  0.97050000  1.0
  C  C309  1  0.18160000  0.39820000  0.01420000  1.0
  C  C310  1  0.18340000  0.28540000  0.91840000  1.0
  C  C311  1  0.09470000  0.26950000  0.89730000  1.0
  C  C312  1  0.10640000  0.23510000  0.85150000  1.0
  C  C313  1  0.02220000  0.21110000  0.83130000  1.0
  C  C314  1  0.99220000  0.28210000  0.76950000  1.0
  C  C315  1  0.94850000  0.33130000  0.74870000  1.0
  C  C316  1  0.88170000  0.36140000  0.77240000  1.0
  C  C317  1  0.86000000  0.34030000  0.81680000  1.0
  C  C318  1  0.90680000  0.29100000  0.83440000  1.0
  C  C319  1  0.83290000  0.41550000  0.75020000  1.0
  C  C320  1  0.33620000  0.37940000  0.31430000  1.0
  C  C321  1  0.32180000  0.35370000  0.36160000  1.0
  C  C322  1  0.30970000  0.29150000  0.36960000  1.0
  C  C323  1  0.29660000  0.26930000  0.41250000  1.0
  C  C324  1  0.30680000  0.37050000  0.44080000  1.0
  C  C325  1  0.32040000  0.39500000  0.39880000  1.0
  C  C326  1  0.27880000  0.28520000  0.49640000  1.0
  C  C327  1  0.36610000  0.27240000  0.51980000  1.0
  C  C328  1  0.34850000  0.24610000  0.56650000  1.0
  C  C329  1  0.42930000  0.22490000  0.59100000  1.0
  C  C330  1  0.46710000  0.30450000  0.64840000  1.0
  C  C331  1  0.51760000  0.35150000  0.66540000  1.0
  C  C332  1  0.59020000  0.37120000  0.63980000  1.0
  C  C333  1  0.60450000  0.34470000  0.59800000  1.0
  C  C334  1  0.55320000  0.29790000  0.58190000  1.0
  C  C335  1  0.65140000  0.42040000  0.66020000  1.0
  C  C336  1  0.80560000  0.79910000  0.76550000  1.0
  C  C337  1  0.83040000  0.85180000  0.79810000  1.0
  C  C338  1  0.76510000  0.87860000  0.82470000  1.0
  C  C339  1  0.78810000  0.92790000  0.85240000  1.0
  C  C340  1  0.93370000  0.92370000  0.82870000  1.0
  C  C341  1  0.91370000  0.87580000  0.80050000  1.0
  C  C342  1  0.89010000  0.00180000  0.88730000  1.0
  C  C343  1  0.92110000  0.97510000  0.93020000  1.0
  C  C344  1  0.92620000  0.02680000  0.96760000  1.0
  C  C345  1  0.96350000  0.99550000  0.01080000  1.0
  C  C346  1  0.90060000  0.04770000  0.07950000  1.0
  C  C347  1  0.90640000  0.09000000  0.11400000  1.0
  C  C348  1  0.97410000  0.13040000  0.11630000  1.0
  C  C349  1  0.03890000  0.12690000  0.08350000  1.0
  C  C350  1  0.03230000  0.08160000  0.05020000  1.0
  C  C351  1  0.98230000  0.17940000  0.15440000  1.0
  C  C352  1  0.70640000  0.79750000  0.64470000  1.0
  C  C353  1  0.67180000  0.84120000  0.60720000  1.0
  C  C354  1  0.59470000  0.87160000  0.61350000  1.0
  C  C355  1  0.56900000  0.91410000  0.58050000  1.0
  C  C356  1  0.68250000  0.89020000  0.53540000  1.0
  C  C357  1  0.71210000  0.84910000  0.56770000  1.0
  C  C358  1  0.57810000  0.97020000  0.50960000  1.0
  C  C359  1  0.56110000  0.93960000  0.46700000  1.0
  C  C360  1  0.53480000  0.98780000  0.42910000  1.0
  C  C361  1  0.60140000  0.02950000  0.41830000  1.0
  C  C362  1  0.52680000  0.11690000  0.37860000  1.0
  C  C363  1  0.50530000  0.15280000  0.34180000  1.0
  C  C364  1  0.53660000  0.13710000  0.29920000  1.0
  C  C365  1  0.58970000  0.08480000  0.29600000  1.0
  C  C366  1  0.61140000  0.04950000  0.33430000  1.0
  C  C367  1  0.51180000  0.17550000  0.25800000  1.0
  C  C368  1  0.84310000  0.61420000  0.59960000  1.0
  C  C369  1  0.84030000  0.64030000  0.55090000  1.0
  C  C370  1  0.85540000  0.70260000  0.54300000  1.0
  C  C371  1  0.84830000  0.72500000  0.49870000  1.0
  C  C372  1  0.81500000  0.62590000  0.47050000  1.0
  C  C373  1  0.81840000  0.60180000  0.51420000  1.0
  C  C374  1  0.81660000  0.71460000  0.41840000  1.0
  C  C375  1  0.90530000  0.73050000  0.39730000  1.0
  C  C376  1  0.89360000  0.76490000  0.35150000  1.0
  C  C377  1  0.97780000  0.78890000  0.33130000  1.0
  C  C378  1  0.00780000  0.71790000  0.26950000  1.0
  C  C379  1  0.05150000  0.66870000  0.24870000  1.0
  C  C380  1  0.11830000  0.63860000  0.27240000  1.0
  C  C381  1  0.14000000  0.65970000  0.31680000  1.0
  C  C382  1  0.09320000  0.70900000  0.33440000  1.0
  C  C383  1  0.16710000  0.58450000  0.25020000  1.0
  C  C384  1  0.66380000  0.62060000  0.81430000  1.0
  C  C385  1  0.67820000  0.64630000  0.86160000  1.0
  C  C386  1  0.69030000  0.70850000  0.86960000  1.0
  C  C387  1  0.70340000  0.73070000  0.91250000  1.0
  C  C388  1  0.69320000  0.62950000  0.94080000  1.0
  C  C389  1  0.67960000  0.60500000  0.89880000  1.0
  C  C390  1  0.72120000  0.71480000  0.99640000  1.0
  C  C391  1  0.63390000  0.72760000  0.01980000  1.0
  C  C392  1  0.65150000  0.75390000  0.06650000  1.0
  C  C393  1  0.57070000  0.77510000  0.09100000  1.0
  C  C394  1  0.53290000  0.69550000  0.14840000  1.0
  C  C395  1  0.48240000  0.64850000  0.16540000  1.0
  C  C396  1  0.40980000  0.62880000  0.13980000  1.0
  C  C397  1  0.39550000  0.65530000  0.09800000  1.0
  C  C398  1  0.44680000  0.70210000  0.08190000  1.0
  C  C399  1  0.34860000  0.57960000  0.16020000  1.0
  C  C400  1  0.69440000  0.29910000  0.26550000  1.0
  C  C401  1  0.66960000  0.35180000  0.29810000  1.0
  C  C402  1  0.73490000  0.37860000  0.32470000  1.0
  C  C403  1  0.71190000  0.42790000  0.35240000  1.0
  C  C404  1  0.56630000  0.42370000  0.32870000  1.0
  C  C405  1  0.58630000  0.37580000  0.30050000  1.0
  C  C406  1  0.60990000  0.50180000  0.38730000  1.0
  C  C407  1  0.57890000  0.47510000  0.43020000  1.0
  C  C408  1  0.57380000  0.52680000  0.46760000  1.0
  C  C409  1  0.53650000  0.49550000  0.51080000  1.0
  C  C410  1  0.59940000  0.54770000  0.57950000  1.0
  C  C411  1  0.59360000  0.59000000  0.61400000  1.0
  C  C412  1  0.52590000  0.63040000  0.61630000  1.0
  C  C413  1  0.46110000  0.62690000  0.58350000  1.0
  C  C414  1  0.46770000  0.58160000  0.55020000  1.0
  C  C415  1  0.51770000  0.67940000  0.65440000  1.0
  C  C416  1  0.79360000  0.29750000  0.14470000  1.0
  C  C417  1  0.82820000  0.34120000  0.10720000  1.0
  C  C418  1  0.90530000  0.37160000  0.11350000  1.0
  C  C419  1  0.93100000  0.41410000  0.08050000  1.0
  C  C420  1  0.81750000  0.39020000  0.03540000  1.0
  C  C421  1  0.78790000  0.34910000  0.06770000  1.0
  C  C422  1  0.92190000  0.47020000  0.00960000  1.0
  C  C423  1  0.93890000  0.43960000  0.96700000  1.0
  C  C424  1  0.96520000  0.48780000  0.92910000  1.0
  C  C425  1  0.89860000  0.52950000  0.91830000  1.0
  C  C426  1  0.97320000  0.61690000  0.87860000  1.0
  C  C427  1  0.99470000  0.65280000  0.84180000  1.0
  C  C428  1  0.96340000  0.63710000  0.79920000  1.0
  C  C429  1  0.91030000  0.58480000  0.79600000  1.0
  C  C430  1  0.88860000  0.54950000  0.83430000  1.0
  C  C431  1  0.98820000  0.67550000  0.75800000  1.0
  C  C432  1  0.65690000  0.11420000  0.09960000  1.0
  C  C433  1  0.65970000  0.14030000  0.05090000  1.0
  C  C434  1  0.64460000  0.20260000  0.04300000  1.0
  C  C435  1  0.65170000  0.22500000  0.99870000  1.0
  C  C436  1  0.68500000  0.12590000  0.97050000  1.0
  C  C437  1  0.68160000  0.10180000  0.01420000  1.0
  C  C438  1  0.68340000  0.21460000  0.91840000  1.0
  C  C439  1  0.59470000  0.23050000  0.89730000  1.0
  C  C440  1  0.60640000  0.26490000  0.85150000  1.0
  C  C441  1  0.52220000  0.28890000  0.83130000  1.0
  C  C442  1  0.49220000  0.21790000  0.76950000  1.0
  C  C443  1  0.44850000  0.16870000  0.74870000  1.0
  C  C444  1  0.38170000  0.13860000  0.77240000  1.0
  C  C445  1  0.36000000  0.15970000  0.81680000  1.0
  C  C446  1  0.40680000  0.20900000  0.83440000  1.0
  C  C447  1  0.33290000  0.08450000  0.75020000  1.0
  C  C448  1  0.83620000  0.12060000  0.31430000  1.0
  C  C449  1  0.82180000  0.14630000  0.36160000  1.0
  C  C450  1  0.80970000  0.20850000  0.36960000  1.0
  C  C451  1  0.79660000  0.23070000  0.41250000  1.0
  C  C452  1  0.80680000  0.12950000  0.44080000  1.0
  C  C453  1  0.82040000  0.10500000  0.39880000  1.0
  C  C454  1  0.77880000  0.21480000  0.49640000  1.0
  C  C455  1  0.86610000  0.22760000  0.51980000  1.0
  C  C456  1  0.84850000  0.25390000  0.56650000  1.0
  C  C457  1  0.92930000  0.27510000  0.59100000  1.0
  C  C458  1  0.96710000  0.19550000  0.64840000  1.0
  C  C459  1  0.01760000  0.14850000  0.66540000  1.0
  C  C460  1  0.09020000  0.12880000  0.63980000  1.0
  C  C461  1  0.10450000  0.15530000  0.59800000  1.0
  C  C462  1  0.05320000  0.20210000  0.58190000  1.0
  C  C463  1  0.15140000  0.07960000  0.66020000  1.0
  C  C464  1  0.30560000  0.70090000  0.76550000  1.0
  C  C465  1  0.33040000  0.64820000  0.79810000  1.0
  C  C466  1  0.26510000  0.62140000  0.82470000  1.0
  C  C467  1  0.28810000  0.57210000  0.85240000  1.0
  C  C468  1  0.43370000  0.57630000  0.82870000  1.0
  C  C469  1  0.41370000  0.62420000  0.80050000  1.0
  C  C470  1  0.39010000  0.49820000  0.88730000  1.0
  C  C471  1  0.42110000  0.52490000  0.93020000  1.0
  C  C472  1  0.42620000  0.47320000  0.96760000  1.0
  C  C473  1  0.46350000  0.50450000  0.01080000  1.0
  C  C474  1  0.40060000  0.45230000  0.07950000  1.0
  C  C475  1  0.40640000  0.41000000  0.11400000  1.0
  C  C476  1  0.47410000  0.36960000  0.11630000  1.0
  C  C477  1  0.53890000  0.37310000  0.08350000  1.0
  C  C478  1  0.53230000  0.41840000  0.05020000  1.0
  C  C479  1  0.48230000  0.32060000  0.15440000  1.0
  C  C480  1  0.20640000  0.70250000  0.64470000  1.0
  C  C481  1  0.17180000  0.65880000  0.60720000  1.0
  C  C482  1  0.09470000  0.62840000  0.61350000  1.0
  C  C483  1  0.06900000  0.58590000  0.58050000  1.0
  C  C484  1  0.18250000  0.60980000  0.53540000  1.0
  C  C485  1  0.21210000  0.65090000  0.56770000  1.0
  C  C486  1  0.07810000  0.52980000  0.50960000  1.0
  C  C487  1  0.06110000  0.56040000  0.46700000  1.0
  C  C488  1  0.03480000  0.51220000  0.42910000  1.0
  C  C489  1  0.10140000  0.47050000  0.41830000  1.0
  C  C490  1  0.02680000  0.38310000  0.37860000  1.0
  C  C491  1  0.00530000  0.34720000  0.34180000  1.0
  C  C492  1  0.03660000  0.36290000  0.29920000  1.0
  C  C493  1  0.08970000  0.41520000  0.29600000  1.0
  C  C494  1  0.11140000  0.45050000  0.33430000  1.0
  C  C495  1  0.01180000  0.32450000  0.25800000  1.0
  C  C496  1  0.34310000  0.88580000  0.59960000  1.0
  C  C497  1  0.34030000  0.85970000  0.55090000  1.0
  C  C498  1  0.35540000  0.79740000  0.54300000  1.0
  C  C499  1  0.34830000  0.77500000  0.49870000  1.0
  C  C500  1  0.31500000  0.87410000  0.47050000  1.0
  C  C501  1  0.31840000  0.89820000  0.51420000  1.0
  C  C502  1  0.31660000  0.78540000  0.41840000  1.0
  C  C503  1  0.40530000  0.76950000  0.39730000  1.0
  C  C504  1  0.39360000  0.73510000  0.35150000  1.0
  C  C505  1  0.47780000  0.71110000  0.33130000  1.0
  C  C506  1  0.50780000  0.78210000  0.26950000  1.0
  C  C507  1  0.55150000  0.83130000  0.24870000  1.0
  C  C508  1  0.61830000  0.86140000  0.27240000  1.0
  C  C509  1  0.64000000  0.84030000  0.31680000  1.0
  C  C510  1  0.59320000  0.79100000  0.33440000  1.0
  C  C511  1  0.66710000  0.91550000  0.25020000  1.0
  C  C512  1  0.16380000  0.87940000  0.81430000  1.0
  C  C513  1  0.17820000  0.85370000  0.86160000  1.0
  C  C514  1  0.19030000  0.79150000  0.86960000  1.0
  C  C515  1  0.20340000  0.76930000  0.91250000  1.0
  C  C516  1  0.19320000  0.87050000  0.94080000  1.0
  C  C517  1  0.17960000  0.89500000  0.89880000  1.0
  C  C518  1  0.22120000  0.78520000  0.99640000  1.0
  C  C519  1  0.13390000  0.77240000  0.01980000  1.0
  C  C520  1  0.15150000  0.74610000  0.06650000  1.0
  C  C521  1  0.07070000  0.72490000  0.09100000  1.0
  C  C522  1  0.03290000  0.80450000  0.14840000  1.0
  C  C523  1  0.98240000  0.85150000  0.16540000  1.0
  C  C524  1  0.90980000  0.87120000  0.13980000  1.0
  C  C525  1  0.89550000  0.84470000  0.09800000  1.0
  C  C526  1  0.94680000  0.79790000  0.08190000  1.0
  C  C527  1  0.84860000  0.92040000  0.16020000  1.0
  N  N528  1  0.24590000  0.33460000  0.20560000  1.0
  N  N529  1  0.24700000  0.38934000  0.20620000  1.0
  N  N530  1  0.24810000  0.44460000  0.20720000  1.0
  N  N531  1  0.13150000  0.05060000  0.35510000  1.0
  N  N532  1  0.03300000  0.95680000  0.54910000  1.0
  N  N533  1  0.38980000  0.07800000  0.04340000  1.0
  N  N534  1  0.42110000  0.93170000  0.87570000  1.0
  N  N535  1  0.17270000  0.31290000  0.96390000  1.0
  N  N536  1  0.97050000  0.26370000  0.81120000  1.0
  N  N537  1  0.29470000  0.30990000  0.44810000  1.0
  N  N538  1  0.48470000  0.27820000  0.60810000  1.0
  N  N539  1  0.75410000  0.66540000  0.70560000  1.0
  N  N540  1  0.75300000  0.61066000  0.70620000  1.0
  N  N541  1  0.75190000  0.55540000  0.70720000  1.0
  N  N542  1  0.86850000  0.94940000  0.85510000  1.0
  N  N543  1  0.96700000  0.04320000  0.04910000  1.0
  N  N544  1  0.61020000  0.92200000  0.54340000  1.0
  N  N545  1  0.57890000  0.06830000  0.37570000  1.0
  N  N546  1  0.82730000  0.68710000  0.46390000  1.0
  N  N547  1  0.02950000  0.73630000  0.31120000  1.0
  N  N548  1  0.70530000  0.69010000  0.94810000  1.0
  N  N549  1  0.51530000  0.72180000  0.10810000  1.0
  N  N550  1  0.74590000  0.16540000  0.20560000  1.0
  N  N551  1  0.74700000  0.11066000  0.20620000  1.0
  N  N552  1  0.74810000  0.05540000  0.20720000  1.0
  N  N553  1  0.63150000  0.44940000  0.35510000  1.0
  N  N554  1  0.53300000  0.54320000  0.54910000  1.0
  N  N555  1  0.88980000  0.42200000  0.04340000  1.0
  N  N556  1  0.92110000  0.56830000  0.87570000  1.0
  N  N557  1  0.67270000  0.18710000  0.96390000  1.0
  N  N558  1  0.47050000  0.23630000  0.81120000  1.0
  N  N559  1  0.79470000  0.19010000  0.44810000  1.0
  N  N560  1  0.98470000  0.22180000  0.60810000  1.0
  N  N561  1  0.25410000  0.83460000  0.70560000  1.0
  N  N562  1  0.25300000  0.88934000  0.70620000  1.0
  N  N563  1  0.25190000  0.94460000  0.70720000  1.0
  N  N564  1  0.36850000  0.55060000  0.85510000  1.0
  N  N565  1  0.46700000  0.45680000  0.04910000  1.0
  N  N566  1  0.11020000  0.57800000  0.54340000  1.0
  N  N567  1  0.07890000  0.43170000  0.37570000  1.0
  N  N568  1  0.32730000  0.81290000  0.46390000  1.0
  N  N569  1  0.52950000  0.76370000  0.31120000  1.0
  N  N570  1  0.20530000  0.80990000  0.94810000  1.0
  N  N571  1  0.01530000  0.77820000  0.10810000  1.0
  O  O572  1  0.14070000  0.21230000  0.23410000  1.0
  O  O573  1  0.26540000  0.22610000  0.27261000  1.0
  O  O574  1  0.05930000  0.83230000  0.69062000  1.0
  O  O575  1  0.97100000  0.77540000  0.64630000  1.0
  O  O576  1  0.21930000  0.22650000  0.13676000  1.0
  O  O577  1  0.33950000  0.20990000  0.17780000  1.0
  O  O578  1  0.54260000  0.78120000  0.76495000  1.0
  O  O579  1  0.45140000  0.83890000  0.72145000  1.0
  O  O580  1  0.18440000  0.43990000  0.10388000  1.0
  O  O581  1  0.12150000  0.35230000  0.12956000  1.0
  O  O582  1  0.85320000  0.42670000  0.70940000  1.0
  O  O583  1  0.77960000  0.44440000  0.77540000  1.0
  O  O584  1  0.36930000  0.34440000  0.28562000  1.0
  O  O585  1  0.31290000  0.43560000  0.30780000  1.0
  O  O586  1  0.71060000  0.44190000  0.63509000  1.0
  O  O587  1  0.63700000  0.43450000  0.70140000  1.0
  O  O588  1  0.85930000  0.78770000  0.73410000  1.0
  O  O589  1  0.73460000  0.77390000  0.77261000  1.0
  O  O590  1  0.94070000  0.16770000  0.19062000  1.0
  O  O591  1  0.02900000  0.22460000  0.14630000  1.0
  O  O592  1  0.78070000  0.77350000  0.63676000  1.0
  O  O593  1  0.66050000  0.79010000  0.67780000  1.0
  O  O594  1  0.45740000  0.21880000  0.26495000  1.0
  O  O595  1  0.54860000  0.16110000  0.22145000  1.0
  O  O596  1  0.81560000  0.56010000  0.60388000  1.0
  O  O597  1  0.87850000  0.64770000  0.62956000  1.0
  O  O598  1  0.14680000  0.57330000  0.20940000  1.0
  O  O599  1  0.22040000  0.55560000  0.27540000  1.0
  O  O600  1  0.63070000  0.65560000  0.78562000  1.0
  O  O601  1  0.68710000  0.56440000  0.80780000  1.0
  O  O602  1  0.28940000  0.55810000  0.13509000  1.0
  O  O603  1  0.36300000  0.56550000  0.20140000  1.0
  O  O604  1  0.64070000  0.28770000  0.23410000  1.0
  O  O605  1  0.76540000  0.27390000  0.27261000  1.0
  O  O606  1  0.55930000  0.66770000  0.69062000  1.0
  O  O607  1  0.47100000  0.72460000  0.64630000  1.0
  O  O608  1  0.71930000  0.27350000  0.13676000  1.0
  O  O609  1  0.83950000  0.29010000  0.17780000  1.0
  O  O610  1  0.04260000  0.71880000  0.76495000  1.0
  O  O611  1  0.95140000  0.66110000  0.72145000  1.0
  O  O612  1  0.68440000  0.06010000  0.10388000  1.0
  O  O613  1  0.62150000  0.14770000  0.12956000  1.0
  O  O614  1  0.35320000  0.07330000  0.70940000  1.0
  O  O615  1  0.27960000  0.05560000  0.77540000  1.0
  O  O616  1  0.86930000  0.15560000  0.28562000  1.0
  O  O617  1  0.81290000  0.06440000  0.30780000  1.0
  O  O618  1  0.21060000  0.05810000  0.63509000  1.0
  O  O619  1  0.13700000  0.06550000  0.70140000  1.0
  O  O620  1  0.35930000  0.71230000  0.73410000  1.0
  O  O621  1  0.23460000  0.72610000  0.77261000  1.0
  O  O622  1  0.44070000  0.33230000  0.19062000  1.0
  O  O623  1  0.52900000  0.27540000  0.14630000  1.0
  O  O624  1  0.28070000  0.72650000  0.63676000  1.0
  O  O625  1  0.16050000  0.70990000  0.67780000  1.0
  O  O626  1  0.95740000  0.28120000  0.26495000  1.0
  O  O627  1  0.04860000  0.33890000  0.22145000  1.0
  O  O628  1  0.31560000  0.93990000  0.60388000  1.0
  O  O629  1  0.37850000  0.85230000  0.62956000  1.0
  O  O630  1  0.64680000  0.92670000  0.20940000  1.0
  O  O631  1  0.72040000  0.94440000  0.27540000  1.0
  O  O632  1  0.13070000  0.84440000  0.78562000  1.0
  O  O633  1  0.18710000  0.93560000  0.80780000  1.0
  O  O634  1  0.78940000  0.94190000  0.13509000  1.0
  O  O635  1  0.86300000  0.93450000  0.20140000  1.0
