# generated using pymatgen
data_NaAg7H20(C6N5)5
_symmetry_space_group_name_H-M   'P 1'
_cell_length_a   12.00400000
_cell_length_b   13.94300000
_cell_length_c   22.74600000
_cell_angle_alpha   95.77600000
_cell_angle_beta   105.20600000
_cell_angle_gamma   104.26500000
_symmetry_Int_Tables_number   1
_chemical_formula_structural   NaAg7H20(C6N5)5
_chemical_formula_sum   'Na2 Ag14 H40 C60 N50'
_cell_volume   3504.44110460
_cell_formula_units_Z   2
loop_
 _symmetry_equiv_pos_site_id
 _symmetry_equiv_pos_as_xyz
  1  'x, y, z'
loop_
 _atom_site_type_symbol
 _atom_site_label
 _atom_site_symmetry_multiplicity
 _atom_site_fract_x
 _atom_site_fract_y
 _atom_site_fract_z
 _atom_site_occupancy
  Na  Na0  1  0.70950000  0.30190000  0.15680000  1.0
  Na  Na1  1  0.29050000  0.69810000  0.84320000  1.0
  Ag  Ag2  1  0.51577000  0.43971000  0.08261000  1.0
  Ag  Ag3  1  0.85482000  0.48531000  0.14588000  1.0
  Ag  Ag4  1  0.97386000  0.65029000  0.30352000  1.0
  Ag  Ag5  1  0.39794000  0.61872000  0.17420000  1.0
  Ag  Ag6  1  0.18636000  0.92569000  0.55895000  1.0
  Ag  Ag7  1  0.31660000  0.32941000  0.93402000  1.0
  Ag  Ag8  1  0.15134000  0.16354000  0.99843000  1.0
  Ag  Ag9  1  0.48423000  0.56029000  0.91739000  1.0
  Ag  Ag10  1  0.14518000  0.51469000  0.85412000  1.0
  Ag  Ag11  1  0.02614000  0.34971000  0.69648000  1.0
  Ag  Ag12  1  0.60206000  0.38128000  0.82580000  1.0
  Ag  Ag13  1  0.81364000  0.07431000  0.44105000  1.0
  Ag  Ag14  1  0.68340000  0.67059000  0.06598000  1.0
  Ag  Ag15  1  0.84866000  0.83646000  0.00157000  1.0
  H  H16  1  0.21500000  0.79290000  0.34280000  1.0
  H  H17  1  0.35280000  0.87110000  0.43260000  1.0
  H  H18  1  0.57270000  0.72820000  0.39690000  1.0
  H  H19  1  0.43330000  0.64680000  0.30470000  1.0
  H  H20  1  0.83710000  0.59090000  0.51750000  1.0
  H  H21  1  0.69860000  0.44510000  0.50950000  1.0
  H  H22  1  0.93410000  0.46870000  0.38130000  1.0
  H  H23  1  0.78480000  0.32790000  0.37040000  1.0
  H  H24  1  0.81690000  0.72470000  0.36310000  1.0
  H  H25  1  0.84680000  0.86870000  0.43100000  1.0
  H  H26  1  0.57620000  0.82400000  0.24140000  1.0
  H  H27  1  0.65820000  0.97450000  0.30650000  1.0
  H  H28  1  0.75880000  0.25200000  0.91780000  1.0
  H  H29  1  0.90230000  0.16520000  0.91970000  1.0
  H  H30  1  0.12970000  0.36020000  0.05830000  1.0
  H  H31  1  0.99800000  0.45290000  0.05890000  1.0
  H  H32  1  0.54390000  0.02450000  0.91180000  1.0
  H  H33  1  0.63550000  0.89230000  0.91400000  1.0
  H  H34  1  0.74600000  0.13310000  0.08460000  1.0
  H  H35  1  0.81850000  0.00330000  0.08920000  1.0
  H  H36  1  0.78500000  0.20710000  0.65720000  1.0
  H  H37  1  0.64720000  0.12890000  0.56740000  1.0
  H  H38  1  0.42730000  0.27180000  0.60310000  1.0
  H  H39  1  0.56670000  0.35320000  0.69530000  1.0
  H  H40  1  0.16290000  0.40910000  0.48250000  1.0
  H  H41  1  0.30140000  0.55490000  0.49050000  1.0
  H  H42  1  0.06590000  0.53130000  0.61870000  1.0
  H  H43  1  0.21520000  0.67210000  0.62960000  1.0
  H  H44  1  0.18310000  0.27530000  0.63690000  1.0
  H  H45  1  0.15320000  0.13130000  0.56900000  1.0
  H  H46  1  0.42380000  0.17600000  0.75860000  1.0
  H  H47  1  0.34180000  0.02550000  0.69350000  1.0
  H  H48  1  0.24120000  0.74800000  0.08220000  1.0
  H  H49  1  0.09770000  0.83480000  0.08030000  1.0
  H  H50  1  0.87030000  0.63980000  0.94170000  1.0
  H  H51  1  0.00200000  0.54710000  0.94110000  1.0
  H  H52  1  0.45610000  0.97550000  0.08820000  1.0
  H  H53  1  0.36450000  0.10770000  0.08600000  1.0
  H  H54  1  0.25400000  0.86690000  0.91540000  1.0
  H  H55  1  0.18150000  0.99670000  0.91080000  1.0
  C  C56  1  0.21490000  0.65910000  0.25750000  1.0
  C  C57  1  0.30480000  0.71300000  0.31520000  1.0
  C  C58  1  0.28800000  0.77760000  0.35290000  1.0
  C  C59  1  0.37200000  0.82500000  0.40720000  1.0
  C  C60  1  0.49900000  0.74180000  0.38620000  1.0
  C  C61  1  0.41590000  0.69270000  0.33100000  1.0
  C  C62  1  0.98570000  0.64740000  0.45110000  1.0
  C  C63  1  0.90000000  0.54750000  0.44530000  1.0
  C  C64  1  0.82700000  0.53650000  0.48740000  1.0
  C  C65  1  0.74800000  0.45200000  0.48370000  1.0
  C  C66  1  0.88460000  0.46700000  0.40670000  1.0
  C  C67  1  0.79900000  0.38080000  0.40230000  1.0
  C  C68  1  0.68750000  0.67470000  0.24550000  1.0
  C  C69  1  0.70630000  0.76020000  0.29150000  1.0
  C  C70  1  0.78000000  0.77350000  0.35020000  1.0
  C  C71  1  0.79890000  0.86130000  0.39040000  1.0
  C  C72  1  0.64100000  0.83470000  0.27680000  1.0
  C  C73  1  0.68300000  0.91930000  0.31840000  1.0
  C  C74  1  0.77890000  0.42380000  0.99010000  1.0
  C  C75  1  0.86480000  0.35950000  0.98530000  1.0
  C  C76  1  0.83500000  0.27630000  0.94630000  1.0
  C  C77  1  0.92200000  0.22380000  0.94840000  1.0
  C  C78  1  0.05450000  0.33750000  0.02870000  1.0
  C  C79  1  0.97710000  0.39440000  0.03000000  1.0
  C  C80  1  0.57600000  0.17580000  0.00300000  1.0
  C  C81  1  0.63700000  0.09120000  0.99820000  1.0
  C  C82  1  0.60200000  0.02150000  0.94700000  1.0
  C  C83  1  0.65800000  0.94280000  0.94840000  1.0
  C  C84  1  0.72100000  0.08320000  0.04970000  1.0
  C  C85  1  0.76800000  0.01000000  0.05180000  1.0
  C  C86  1  0.78510000  0.34090000  0.74250000  1.0
  C  C87  1  0.69520000  0.28700000  0.68480000  1.0
  C  C88  1  0.71200000  0.22240000  0.64710000  1.0
  C  C89  1  0.62800000  0.17500000  0.59280000  1.0
  C  C90  1  0.50100000  0.25820000  0.61380000  1.0
  C  C91  1  0.58410000  0.30730000  0.66900000  1.0
  C  C92  1  0.01430000  0.35260000  0.54890000  1.0
  C  C93  1  0.10000000  0.45250000  0.55470000  1.0
  C  C94  1  0.17300000  0.46350000  0.51260000  1.0
  C  C95  1  0.25200000  0.54800000  0.51630000  1.0
  C  C96  1  0.11540000  0.53300000  0.59330000  1.0
  C  C97  1  0.20100000  0.61920000  0.59770000  1.0
  C  C98  1  0.31250000  0.32530000  0.75450000  1.0
  C  C99  1  0.29370000  0.23980000  0.70850000  1.0
  C  C100  1  0.22000000  0.22650000  0.64980000  1.0
  C  C101  1  0.20110000  0.13870000  0.60960000  1.0
  C  C102  1  0.35900000  0.16530000  0.72320000  1.0
  C  C103  1  0.31700000  0.08070000  0.68160000  1.0
  C  C104  1  0.22110000  0.57620000  0.00990000  1.0
  C  C105  1  0.13520000  0.64050000  0.01470000  1.0
  C  C106  1  0.16500000  0.72370000  0.05370000  1.0
  C  C107  1  0.07800000  0.77620000  0.05160000  1.0
  C  C108  1  0.94550000  0.66250000  0.97130000  1.0
  C  C109  1  0.02290000  0.60560000  0.97000000  1.0
  C  C110  1  0.42400000  0.82420000  0.99700000  1.0
  C  C111  1  0.36300000  0.90880000  0.00180000  1.0
  C  C112  1  0.39800000  0.97850000  0.05300000  1.0
  C  C113  1  0.34200000  0.05720000  0.05160000  1.0
  C  C114  1  0.27900000  0.91680000  0.95030000  1.0
  C  C115  1  0.23200000  0.99000000  0.94820000  1.0
  N  N116  1  0.24240000  0.61960000  0.20670000  1.0
  N  N117  1  0.13370000  0.57200000  0.16400000  1.0
  N  N118  1  0.04810000  0.58300000  0.18960000  1.0
  N  N119  1  0.47720000  0.81040000  0.42630000  1.0
  N  N120  1  0.02590000  0.68560000  0.40620000  1.0
  N  N121  1  0.10050000  0.77650000  0.43390000  1.0
  N  N122  1  0.09710000  0.79290000  0.49110000  1.0
  N  N123  1  0.02220000  0.71350000  0.50430000  1.0
  N  N124  1  0.73890000  0.36920000  0.43850000  1.0
  N  N125  1  0.77740000  0.63150000  0.24280000  1.0
  N  N126  1  0.73400000  0.56140000  0.19270000  1.0
  N  N127  1  0.62100000  0.55950000  0.16610000  1.0
  N  N128  1  0.58990000  0.63090000  0.19760000  1.0
  N  N129  1  0.75530000  0.93190000  0.37540000  1.0
  N  N130  1  0.78260000  0.48140000  0.03910000  1.0
  N  N131  1  0.69800000  0.52150000  0.02150000  1.0
  N  N132  1  0.63860000  0.49010000  0.96570000  1.0
  N  N133  1  0.68820000  0.42270000  0.94060000  1.0
  N  N134  1  0.03390000  0.25430000  0.99000000  1.0
  N  N135  1  0.60080000  0.24820000  0.05160000  1.0
  N  N136  1  0.52940000  0.30270000  0.03060000  1.0
  N  N137  1  0.46030000  0.26610000  0.97420000  1.0
  N  N138  1  0.49200000  0.18590000  0.95280000  1.0
  N  N139  1  0.74600000  0.94180000  0.00100000  1.0
  N  N140  1  0.09850000  0.63390000  0.24590000  1.0
  N  N141  1  0.75760000  0.38040000  0.79330000  1.0
  N  N142  1  0.86630000  0.42800000  0.83600000  1.0
  N  N143  1  0.95190000  0.41700000  0.81040000  1.0
  N  N144  1  0.52280000  0.18960000  0.57370000  1.0
  N  N145  1  0.97410000  0.31440000  0.59380000  1.0
  N  N146  1  0.89950000  0.22350000  0.56610000  1.0
  N  N147  1  0.90290000  0.20710000  0.50890000  1.0
  N  N148  1  0.97780000  0.28650000  0.49570000  1.0
  N  N149  1  0.26110000  0.63080000  0.56150000  1.0
  N  N150  1  0.22260000  0.36850000  0.75720000  1.0
  N  N151  1  0.26600000  0.43860000  0.80730000  1.0
  N  N152  1  0.37900000  0.44050000  0.83390000  1.0
  N  N153  1  0.41010000  0.36910000  0.80240000  1.0
  N  N154  1  0.24470000  0.06810000  0.62460000  1.0
  N  N155  1  0.21740000  0.51860000  0.96090000  1.0
  N  N156  1  0.30200000  0.47850000  0.97850000  1.0
  N  N157  1  0.36140000  0.50990000  0.03430000  1.0
  N  N158  1  0.31180000  0.57730000  0.05940000  1.0
  N  N159  1  0.96610000  0.74570000  0.01000000  1.0
  N  N160  1  0.39920000  0.75180000  0.94840000  1.0
  N  N161  1  0.47060000  0.69730000  0.96940000  1.0
  N  N162  1  0.53970000  0.73390000  0.02580000  1.0
  N  N163  1  0.50800000  0.81410000  0.04720000  1.0
  N  N164  1  0.25400000  0.05820000  0.99900000  1.0
  N  N165  1  0.90150000  0.36610000  0.75410000  1.0
