# generated using pymatgen
data_Eu2H24(C14O5)3
_symmetry_space_group_name_H-M   'P 1'
_cell_length_a   14.58900000
_cell_length_b   15.28500000
_cell_length_c   22.75800000
_cell_angle_alpha   84.67900000
_cell_angle_beta   84.32300000
_cell_angle_gamma   86.39600000
_symmetry_Int_Tables_number   1
_chemical_formula_structural   Eu2H24(C14O5)3
_chemical_formula_sum   'Eu8 H96 C168 O60'
_cell_volume   5020.83284398
_cell_formula_units_Z   4
loop_
 _symmetry_equiv_pos_site_id
 _symmetry_equiv_pos_as_xyz
  1  'x, y, z'
loop_
 _atom_site_type_symbol
 _atom_site_label
 _atom_site_symmetry_multiplicity
 _atom_site_fract_x
 _atom_site_fract_y
 _atom_site_fract_z
 _atom_site_occupancy
  Eu  Eu0  1  0.17849000  0.87216000  0.71523000  1.0
  Eu  Eu1  1  0.32717000  0.33367000  0.77222000  1.0
  Eu  Eu2  1  0.20615000  0.12089000  0.75749000  1.0
  Eu  Eu3  1  0.28959000  0.59951000  0.76387000  1.0
  Eu  Eu4  1  0.82151000  0.12784000  0.28477000  1.0
  Eu  Eu5  1  0.67283000  0.66633000  0.22778000  1.0
  Eu  Eu6  1  0.79385000  0.87911000  0.24251000  1.0
  Eu  Eu7  1  0.71041000  0.40049000  0.23613000  1.0
  H  H8  1  0.09490000  0.73430000  0.19910000  1.0
  H  H9  1  0.95800000  0.72790000  0.64000000  1.0
  H  H10  1  0.07390000  0.50070000  0.71010000  1.0
  H  H11  1  0.84080000  0.65310000  0.61050000  1.0
  H  H12  1  0.96350000  0.42570000  0.67330000  1.0
  H  H13  1  0.89960000  0.56870000  0.18120000  1.0
  H  H14  1  0.01490000  0.47400000  0.13660000  1.0
  H  H15  1  0.97360000  0.91960000  0.13140000  1.0
  H  H16  1  0.15050000  0.05990000  0.20460000  1.0
  H  H17  1  0.26650000  0.01830000  0.13640000  1.0
  H  H18  1  0.09170000  0.87520000  0.06550000  1.0
  H  H19  1  0.56310000  0.21080000  0.21190000  1.0
  H  H20  1  0.42670000  0.75700000  0.37760000  1.0
  H  H21  1  0.43210000  0.26290000  0.17170000  1.0
  H  H22  1  0.14530000  0.14380000  0.53680000  1.0
  H  H23  1  0.16050000  0.91850000  0.88660000  1.0
  H  H24  1  0.45060000  0.19270000  0.00630000  1.0
  H  H25  1  0.40810000  0.18230000  0.91180000  1.0
  H  H26  1  0.18840000  0.12030000  0.43980000  1.0
  H  H27  1  0.14200000  0.16340000  0.97610000  1.0
  H  H28  1  0.17390000  0.97770000  0.97220000  1.0
  H  H29  1  0.63450000  0.56570000  0.78470000  1.0
  H  H30  1  0.49500000  0.70150000  0.69750000  1.0
  H  H31  1  0.34800000  0.98240000  0.59010000  1.0
  H  H32  1  0.61260000  0.48220000  0.44030000  1.0
  H  H33  1  0.78930000  0.71790000  0.44570000  1.0
  H  H34  1  0.80000000  0.64490000  0.36080000  1.0
  H  H35  1  0.48220000  0.05410000  0.34370000  1.0
  H  H36  1  0.18730000  0.17350000  0.06850000  1.0
  H  H37  1  0.40060000  0.80430000  0.54560000  1.0
  H  H38  1  0.52820000  0.43180000  0.67020000  1.0
  H  H39  1  0.31520000  0.70670000  0.93860000  1.0
  H  H40  1  0.40400000  0.96890000  0.49140000  1.0
  H  H41  1  0.59460000  0.56450000  0.52080000  1.0
  H  H42  1  0.63780000  0.67410000  0.64850000  1.0
  H  H43  1  0.33070000  0.76760000  0.02600000  1.0
  H  H44  1  0.32270000  0.86470000  0.41300000  1.0
  H  H45  1  0.56230000  0.99360000  0.13010000  1.0
  H  H46  1  0.43620000  0.04700000  0.08350000  1.0
  H  H47  1  0.66630000  0.42330000  0.61390000  1.0
  H  H48  1  0.59500000  0.94850000  0.31090000  1.0
  H  H49  1  0.78210000  0.54730000  0.73280000  1.0
  H  H50  1  0.16240000  0.57070000  0.93490000  1.0
  H  H51  1  0.28420000  0.37630000  0.07160000  1.0
  H  H52  1  0.54080000  0.76340000  0.49380000  1.0
  H  H53  1  0.30800000  0.35400000  0.97550000  1.0
  H  H54  1  0.20710000  0.63920000  0.15600000  1.0
  H  H55  1  0.14030000  0.59880000  0.03300000  1.0
  H  H56  1  0.90510000  0.26570000  0.80090000  1.0
  H  H57  1  0.04200000  0.27210000  0.36000000  1.0
  H  H58  1  0.92610000  0.49930000  0.28990000  1.0
  H  H59  1  0.15920000  0.34690000  0.38950000  1.0
  H  H60  1  0.03650000  0.57430000  0.32670000  1.0
  H  H61  1  0.10040000  0.43130000  0.81880000  1.0
  H  H62  1  0.98510000  0.52600000  0.86340000  1.0
  H  H63  1  0.02640000  0.08040000  0.86860000  1.0
  H  H64  1  0.84950000  0.94010000  0.79540000  1.0
  H  H65  1  0.73350000  0.98170000  0.86360000  1.0
  H  H66  1  0.90830000  0.12480000  0.93450000  1.0
  H  H67  1  0.43690000  0.78920000  0.78810000  1.0
  H  H68  1  0.57330000  0.24300000  0.62240000  1.0
  H  H69  1  0.56790000  0.73710000  0.82830000  1.0
  H  H70  1  0.85470000  0.85620000  0.46320000  1.0
  H  H71  1  0.83950000  0.08150000  0.11340000  1.0
  H  H72  1  0.54940000  0.80730000  0.99370000  1.0
  H  H73  1  0.59190000  0.81770000  0.08820000  1.0
  H  H74  1  0.81160000  0.87970000  0.56020000  1.0
  H  H75  1  0.85800000  0.83660000  0.02390000  1.0
  H  H76  1  0.82610000  0.02230000  0.02780000  1.0
  H  H77  1  0.36550000  0.43430000  0.21530000  1.0
  H  H78  1  0.50500000  0.29850000  0.30250000  1.0
  H  H79  1  0.65200000  0.01760000  0.40990000  1.0
  H  H80  1  0.38740000  0.51780000  0.55970000  1.0
  H  H81  1  0.21070000  0.28210000  0.55430000  1.0
  H  H82  1  0.20000000  0.35510000  0.63920000  1.0
  H  H83  1  0.51780000  0.94590000  0.65630000  1.0
  H  H84  1  0.81270000  0.82650000  0.93150000  1.0
  H  H85  1  0.59940000  0.19570000  0.45440000  1.0
  H  H86  1  0.47180000  0.56820000  0.32980000  1.0
  H  H87  1  0.68480000  0.29330000  0.06140000  1.0
  H  H88  1  0.59600000  0.03110000  0.50860000  1.0
  H  H89  1  0.40540000  0.43550000  0.47920000  1.0
  H  H90  1  0.36220000  0.32590000  0.35150000  1.0
  H  H91  1  0.66930000  0.23240000  0.97400000  1.0
  H  H92  1  0.67730000  0.13530000  0.58700000  1.0
  H  H93  1  0.43770000  0.00640000  0.86990000  1.0
  H  H94  1  0.56380000  0.95300000  0.91650000  1.0
  H  H95  1  0.33370000  0.57670000  0.38610000  1.0
  H  H96  1  0.40500000  0.05150000  0.68910000  1.0
  H  H97  1  0.21790000  0.45270000  0.26720000  1.0
  H  H98  1  0.83760000  0.42930000  0.06510000  1.0
  H  H99  1  0.71580000  0.62370000  0.92840000  1.0
  H  H100  1  0.45920000  0.23660000  0.50620000  1.0
  H  H101  1  0.69200000  0.64600000  0.02450000  1.0
  H  H102  1  0.79290000  0.36080000  0.84400000  1.0
  H  H103  1  0.85970000  0.40120000  0.96700000  1.0
  C  C104  1  0.07840000  0.68150000  0.18690000  1.0
  C  C105  1  0.09250000  0.67080000  0.70180000  1.0
  C  C106  1  0.02710000  0.62090000  0.67890000  1.0
  C  C107  1  0.95700000  0.66720000  0.64800000  1.0
  C  C108  1  0.02820000  0.53110000  0.68940000  1.0
  C  C109  1  0.88790000  0.62300000  0.63010000  1.0
  C  C110  1  0.96050000  0.48690000  0.66880000  1.0
  C  C111  1  0.91360000  0.72040000  0.22330000  1.0
  C  C112  1  0.98650000  0.65970000  0.19490000  1.0
  C  C113  1  0.96090000  0.58330000  0.17640000  1.0
  C  C114  1  0.03030000  0.52660000  0.14960000  1.0
  C  C115  1  0.97520000  0.03330000  0.21630000  1.0
  C  C116  1  0.04960000  0.99710000  0.17420000  1.0
  C  C117  1  0.03240000  0.93930000  0.13240000  1.0
  C  C118  1  0.13850000  0.02380000  0.17590000  1.0
  C  C119  1  0.20770000  0.99800000  0.13630000  1.0
  C  C120  1  0.10240000  0.91280000  0.09370000  1.0
  C  C121  1  0.64920000  0.05940000  0.20820000  1.0
  C  C122  1  0.57130000  0.08910000  0.17800000  1.0
  C  C123  1  0.53460000  0.17680000  0.18800000  1.0
  C  C124  1  0.59230000  0.77560000  0.31710000  1.0
  C  C125  1  0.52310000  0.84290000  0.34290000  1.0
  C  C126  1  0.43990000  0.81610000  0.37180000  1.0
  C  C127  1  0.45950000  0.20850000  0.16290000  1.0
  C  C128  1  0.70840000  0.50900000  0.33620000  1.0
  C  C129  1  0.22640000  0.75940000  0.84770000  1.0
  C  C130  1  0.43020000  0.75300000  0.62750000  1.0
  C  C131  1  0.21420000  0.07660000  0.63730000  1.0
  C  C132  1  0.24210000  0.06650000  0.57400000  1.0
  C  C133  1  0.27120000  0.17220000  0.93440000  1.0
  C  C134  1  0.19660000  0.10640000  0.52800000  1.0
  C  C135  1  0.19350000  0.88680000  0.91530000  1.0
  C  C136  1  0.33650000  0.77290000  0.65910000  1.0
  C  C137  1  0.32010000  0.18460000  0.04540000  1.0
  C  C138  1  0.38940000  0.18710000  0.99970000  1.0
  C  C139  1  0.36340000  0.18080000  0.94390000  1.0
  C  C140  1  0.22290000  0.09390000  0.46940000  1.0
  C  C141  1  0.20360000  0.16940000  0.98160000  1.0
  C  C142  1  0.68970000  0.65060000  0.48960000  1.0
  C  C143  1  0.30020000  0.04220000  0.45550000  1.0
  C  C144  1  0.70470000  0.55640000  0.38900000  1.0
  C  C145  1  0.20150000  0.92240000  0.96590000  1.0
  C  C146  1  0.64180000  0.53600000  0.75050000  1.0
  C  C147  1  0.50370000  0.71550000  0.65680000  1.0
  C  C148  1  0.47430000  0.52170000  0.76620000  1.0
  C  C149  1  0.31730000  0.01290000  0.55990000  1.0
  C  C150  1  0.64610000  0.53210000  0.43960000  1.0
  C  C151  1  0.75100000  0.67220000  0.44360000  1.0
  C  C152  1  0.75850000  0.62720000  0.39270000  1.0
  C  C153  1  0.39300000  0.96900000  0.38090000  1.0
  C  C154  1  0.47190000  0.99450000  0.35130000  1.0
  C  C155  1  0.23140000  0.17560000  0.03600000  1.0
  C  C156  1  0.44700000  0.77480000  0.56610000  1.0
  C  C157  1  0.23280000  0.80410000  0.90390000  1.0
  C  C158  1  0.60360000  0.71660000  0.56630000  1.0
  C  C159  1  0.57820000  0.45830000  0.68200000  1.0
  C  C160  1  0.28560000  0.76090000  0.94580000  1.0
  C  C161  1  0.24860000  0.87880000  0.00680000  1.0
  C  C162  1  0.34980000  0.00230000  0.50040000  1.0
  C  C163  1  0.56640000  0.50020000  0.73110000  1.0
  C  C164  1  0.63670000  0.58000000  0.48870000  1.0
  C  C165  1  0.58950000  0.69810000  0.62740000  1.0
  C  C166  1  0.42290000  0.16060000  0.12400000  1.0
  C  C167  1  0.29500000  0.79650000  0.99770000  1.0
  C  C168  1  0.37750000  0.88120000  0.39160000  1.0
  C  C169  1  0.24740000  0.16960000  0.87470000  1.0
  C  C170  1  0.26210000  0.44420000  0.88290000  1.0
  C  C171  1  0.23620000  0.46070000  0.94460000  1.0
  C  C172  1  0.53510000  0.04800000  0.13900000  1.0
  C  C173  1  0.46050000  0.07900000  0.11050000  1.0
  C  C174  1  0.66080000  0.45240000  0.64830000  1.0
  C  C175  1  0.73440000  0.48930000  0.66530000  1.0
  C  C176  1  0.53990000  0.93110000  0.33140000  1.0
  C  C177  1  0.18980000  0.94140000  0.09580000  1.0
  C  C178  1  0.72980000  0.52790000  0.71870000  1.0
  C  C179  1  0.18700000  0.53040000  0.96310000  1.0
  C  C180  1  0.88930000  0.52970000  0.64210000  1.0
  C  C181  1  0.19940000  0.48330000  0.06270000  1.0
  C  C182  1  0.25610000  0.41500000  0.04390000  1.0
  C  C183  1  0.53250000  0.75320000  0.53490000  1.0
  C  C184  1  0.27180000  0.40290000  0.98700000  1.0
  C  C185  1  0.12040000  0.54990000  0.14300000  1.0
  C  C186  1  0.14560000  0.62500000  0.16090000  1.0
  C  C187  1  0.17030000  0.54660000  0.02180000  1.0
  C  C188  1  0.92160000  0.31850000  0.81310000  1.0
  C  C189  1  0.90750000  0.32920000  0.29820000  1.0
  C  C190  1  0.97290000  0.37910000  0.32110000  1.0
  C  C191  1  0.04300000  0.33280000  0.35200000  1.0
  C  C192  1  0.97180000  0.46890000  0.31060000  1.0
  C  C193  1  0.11210000  0.37700000  0.36990000  1.0
  C  C194  1  0.03950000  0.51310000  0.33120000  1.0
  C  C195  1  0.08640000  0.27960000  0.77670000  1.0
  C  C196  1  0.01350000  0.34030000  0.80510000  1.0
  C  C197  1  0.03910000  0.41670000  0.82360000  1.0
  C  C198  1  0.96970000  0.47340000  0.85040000  1.0
  C  C199  1  0.02480000  0.96670000  0.78370000  1.0
  C  C200  1  0.95040000  0.00290000  0.82580000  1.0
  C  C201  1  0.96760000  0.06070000  0.86760000  1.0
  C  C202  1  0.86150000  0.97620000  0.82410000  1.0
  C  C203  1  0.79230000  0.00200000  0.86370000  1.0
  C  C204  1  0.89760000  0.08720000  0.90630000  1.0
  C  C205  1  0.35080000  0.94060000  0.79180000  1.0
  C  C206  1  0.42870000  0.91090000  0.82200000  1.0
  C  C207  1  0.46540000  0.82320000  0.81200000  1.0
  C  C208  1  0.40770000  0.22440000  0.68290000  1.0
  C  C209  1  0.47690000  0.15710000  0.65710000  1.0
  C  C210  1  0.56010000  0.18390000  0.62820000  1.0
  C  C211  1  0.54050000  0.79150000  0.83710000  1.0
  C  C212  1  0.29160000  0.49100000  0.66380000  1.0
  C  C213  1  0.77360000  0.24060000  0.15230000  1.0
  C  C214  1  0.56980000  0.24700000  0.37250000  1.0
  C  C215  1  0.78580000  0.92340000  0.36270000  1.0
  C  C216  1  0.75790000  0.93350000  0.42600000  1.0
  C  C217  1  0.72880000  0.82780000  0.06560000  1.0
  C  C218  1  0.80340000  0.89360000  0.47200000  1.0
  C  C219  1  0.80650000  0.11320000  0.08470000  1.0
  C  C220  1  0.66350000  0.22710000  0.34090000  1.0
  C  C221  1  0.67990000  0.81540000  0.95460000  1.0
  C  C222  1  0.61060000  0.81290000  0.00030000  1.0
  C  C223  1  0.63660000  0.81920000  0.05610000  1.0
  C  C224  1  0.77710000  0.90610000  0.53060000  1.0
  C  C225  1  0.79640000  0.83060000  0.01840000  1.0
  C  C226  1  0.31030000  0.34940000  0.51040000  1.0
  C  C227  1  0.69980000  0.95780000  0.54450000  1.0
  C  C228  1  0.29530000  0.44360000  0.61100000  1.0
  C  C229  1  0.79850000  0.07760000  0.03410000  1.0
  C  C230  1  0.35820000  0.46400000  0.24950000  1.0
  C  C231  1  0.49630000  0.28450000  0.34320000  1.0
  C  C232  1  0.52570000  0.47830000  0.23380000  1.0
  C  C233  1  0.68270000  0.98710000  0.44010000  1.0
  C  C234  1  0.35390000  0.46790000  0.56040000  1.0
  C  C235  1  0.24900000  0.32780000  0.55640000  1.0
  C  C236  1  0.24150000  0.37280000  0.60730000  1.0
  C  C237  1  0.60700000  0.03100000  0.61910000  1.0
  C  C238  1  0.52810000  0.00550000  0.64870000  1.0
  C  C239  1  0.76860000  0.82440000  0.96400000  1.0
  C  C240  1  0.55300000  0.22520000  0.43390000  1.0
  C  C241  1  0.76720000  0.19590000  0.09610000  1.0
  C  C242  1  0.39640000  0.28340000  0.43370000  1.0
  C  C243  1  0.42180000  0.54170000  0.31800000  1.0
  C  C244  1  0.71440000  0.23910000  0.05420000  1.0
  C  C245  1  0.75140000  0.12120000  0.99320000  1.0
  C  C246  1  0.65020000  0.99770000  0.49960000  1.0
  C  C247  1  0.43360000  0.49980000  0.26890000  1.0
  C  C248  1  0.36330000  0.42000000  0.51130000  1.0
  C  C249  1  0.41050000  0.30190000  0.37260000  1.0
  C  C250  1  0.57710000  0.83940000  0.87600000  1.0
  C  C251  1  0.70500000  0.20350000  0.00230000  1.0
  C  C252  1  0.62250000  0.11880000  0.60840000  1.0
  C  C253  1  0.75260000  0.83040000  0.12530000  1.0
  C  C254  1  0.73790000  0.55580000  0.11710000  1.0
  C  C255  1  0.76380000  0.53930000  0.05540000  1.0
  C  C256  1  0.46490000  0.95200000  0.86100000  1.0
  C  C257  1  0.53950000  0.92100000  0.88950000  1.0
  C  C258  1  0.33920000  0.54760000  0.35170000  1.0
  C  C259  1  0.26560000  0.51070000  0.33470000  1.0
  C  C260  1  0.46010000  0.06890000  0.66860000  1.0
  C  C261  1  0.81020000  0.05860000  0.90420000  1.0
  C  C262  1  0.27020000  0.47210000  0.28130000  1.0
  C  C263  1  0.81300000  0.46960000  0.03690000  1.0
  C  C264  1  0.11070000  0.47030000  0.35790000  1.0
  C  C265  1  0.80060000  0.51670000  0.93730000  1.0
  C  C266  1  0.74390000  0.58500000  0.95610000  1.0
  C  C267  1  0.46750000  0.24680000  0.46510000  1.0
  C  C268  1  0.72820000  0.59710000  0.01300000  1.0
  C  C269  1  0.87960000  0.45010000  0.85700000  1.0
  C  C270  1  0.85440000  0.37500000  0.83910000  1.0
  C  C271  1  0.82970000  0.45340000  0.97820000  1.0
  O  O272  1  0.09860000  0.75000000  0.68720000  1.0
  O  O273  1  0.14460000  0.62370000  0.73990000  1.0
  O  O274  1  0.82990000  0.70490000  0.23140000  1.0
  O  O275  1  0.94020000  0.79510000  0.23670000  1.0
  O  O276  1  0.98420000  0.09340000  0.24780000  1.0
  O  O277  1  0.89050000  0.99910000  0.21910000  1.0
  O  O278  1  0.68350000  0.98010000  0.20130000  1.0
  O  O279  1  0.68640000  0.10120000  0.24220000  1.0
  O  O280  1  0.66830000  0.80040000  0.29170000  1.0
  O  O281  1  0.57220000  0.69720000  0.31820000  1.0
  O  O282  1  0.74390000  0.54850000  0.28630000  1.0
  O  O283  1  0.68030000  0.43360000  0.33840000  1.0
  O  O284  1  0.23640000  0.50380000  0.84470000  1.0
  O  O285  1  0.23650000  0.02160000  0.67630000  1.0
  O  O286  1  0.31670000  0.73510000  0.71010000  1.0
  O  O287  1  0.16520000  0.14650000  0.65180000  1.0
  O  O288  1  0.30020000  0.19560000  0.82780000  1.0
  O  O289  1  0.17220000  0.13400000  0.86520000  1.0
  O  O290  1  0.26810000  0.69290000  0.83830000  1.0
  O  O291  1  0.28220000  0.82970000  0.63420000  1.0
  O  O292  1  0.17000000  0.80020000  0.81360000  1.0
  O  O293  1  0.29540000  0.37550000  0.86750000  1.0
  O  O294  1  0.34160000  0.19520000  0.10170000  1.0
  O  O295  1  0.68830000  0.69700000  0.53790000  1.0
  O  O296  1  0.26440000  0.91610000  0.05890000  1.0
  O  O297  1  0.32550000  0.03350000  0.39750000  1.0
  O  O298  1  0.41280000  0.46680000  0.76250000  1.0
  O  O299  1  0.45180000  0.59340000  0.78580000  1.0
  O  O300  1  0.81520000  0.48450000  0.62740000  1.0
  O  O301  1  0.18890000  0.49200000  0.12230000  1.0
  O  O302  1  0.90140000  0.25000000  0.31280000  1.0
  O  O303  1  0.85540000  0.37630000  0.26010000  1.0
  O  O304  1  0.17010000  0.29510000  0.76860000  1.0
  O  O305  1  0.05980000  0.20490000  0.76330000  1.0
  O  O306  1  0.01580000  0.90660000  0.75220000  1.0
  O  O307  1  0.10950000  0.00090000  0.78090000  1.0
  O  O308  1  0.31650000  0.01990000  0.79870000  1.0
  O  O309  1  0.31360000  0.89880000  0.75780000  1.0
  O  O310  1  0.33170000  0.19960000  0.70830000  1.0
  O  O311  1  0.42780000  0.30280000  0.68180000  1.0
  O  O312  1  0.25610000  0.45150000  0.71370000  1.0
  O  O313  1  0.31970000  0.56640000  0.66160000  1.0
  O  O314  1  0.76360000  0.49620000  0.15530000  1.0
  O  O315  1  0.76350000  0.97840000  0.32370000  1.0
  O  O316  1  0.68330000  0.26490000  0.28990000  1.0
  O  O317  1  0.83480000  0.85350000  0.34820000  1.0
  O  O318  1  0.69980000  0.80440000  0.17220000  1.0
  O  O319  1  0.82780000  0.86600000  0.13480000  1.0
  O  O320  1  0.73190000  0.30710000  0.16170000  1.0
  O  O321  1  0.71780000  0.17030000  0.36580000  1.0
  O  O322  1  0.83000000  0.19980000  0.18640000  1.0
  O  O323  1  0.70460000  0.62450000  0.13250000  1.0
  O  O324  1  0.65840000  0.80480000  0.89830000  1.0
  O  O325  1  0.31170000  0.30300000  0.46210000  1.0
  O  O326  1  0.73560000  0.08390000  0.94110000  1.0
  O  O327  1  0.67450000  0.96650000  0.60250000  1.0
  O  O328  1  0.58720000  0.53320000  0.23750000  1.0
  O  O329  1  0.54820000  0.40660000  0.21420000  1.0
  O  O330  1  0.18480000  0.51550000  0.37260000  1.0
  O  O331  1  0.81110000  0.50800000  0.87770000  1.0
