# generated using pymatgen
data_Ag2H10(C3N2)5
_symmetry_space_group_name_H-M   'P 1'
_cell_length_a   17.08010000
_cell_length_b   17.07820000
_cell_length_c   7.59200000
_cell_angle_alpha   90.00000000
_cell_angle_beta   90.00000000
_cell_angle_gamma   90.00000000
_symmetry_Int_Tables_number   1
_chemical_formula_structural   Ag2H10(C3N2)5
_chemical_formula_sum   'Ag8 H40 C60 N40'
_cell_volume   2214.56638612
_cell_formula_units_Z   4
loop_
 _symmetry_equiv_pos_site_id
 _symmetry_equiv_pos_as_xyz
  1  'x, y, z'
loop_
 _atom_site_type_symbol
 _atom_site_label
 _atom_site_symmetry_multiplicity
 _atom_site_fract_x
 _atom_site_fract_y
 _atom_site_fract_z
 _atom_site_occupancy
  Ag  Ag0  1  0.81416000  0.18978000  0.24346000  1.0
  Ag  Ag1  1  0.18584000  0.81022000  0.24346000  1.0
  Ag  Ag2  1  0.68584000  0.68978000  0.25654000  1.0
  Ag  Ag3  1  0.31416000  0.31022000  0.25654000  1.0
  Ag  Ag4  1  0.18584000  0.81022000  0.75654000  1.0
  Ag  Ag5  1  0.81416000  0.18978000  0.75654000  1.0
  Ag  Ag6  1  0.31416000  0.31022000  0.74346000  1.0
  Ag  Ag7  1  0.68584000  0.68978000  0.74346000  1.0
  H  H8  1  0.94780000  0.05370000  0.29950000  1.0
  H  H9  1  0.62760000  0.20140000  0.29830000  1.0
  H  H10  1  0.48390000  0.24320000  0.29690000  1.0
  H  H11  1  0.82630000  0.38640000  0.30150000  1.0
  H  H12  1  0.77540000  0.52470000  0.30580000  1.0
  H  H13  1  0.05220000  0.94630000  0.29950000  1.0
  H  H14  1  0.37240000  0.79860000  0.29830000  1.0
  H  H15  1  0.51610000  0.75680000  0.29690000  1.0
  H  H16  1  0.17370000  0.61360000  0.30150000  1.0
  H  H17  1  0.22460000  0.47530000  0.30580000  1.0
  H  H18  1  0.55220000  0.55370000  0.20050000  1.0
  H  H19  1  0.87240000  0.70140000  0.20170000  1.0
  H  H20  1  0.01610000  0.74320000  0.20310000  1.0
  H  H21  1  0.67370000  0.88640000  0.19850000  1.0
  H  H22  1  0.72460000  0.02470000  0.19420000  1.0
  H  H23  1  0.44780000  0.44630000  0.20050000  1.0
  H  H24  1  0.12760000  0.29860000  0.20170000  1.0
  H  H25  1  0.98390000  0.25680000  0.20310000  1.0
  H  H26  1  0.32630000  0.11360000  0.19850000  1.0
  H  H27  1  0.27540000  0.97530000  0.19420000  1.0
  H  H28  1  0.05220000  0.94630000  0.70050000  1.0
  H  H29  1  0.37240000  0.79860000  0.70170000  1.0
  H  H30  1  0.51610000  0.75680000  0.70310000  1.0
  H  H31  1  0.17370000  0.61360000  0.69850000  1.0
  H  H32  1  0.22460000  0.47530000  0.69420000  1.0
  H  H33  1  0.94780000  0.05370000  0.70050000  1.0
  H  H34  1  0.62760000  0.20140000  0.70170000  1.0
  H  H35  1  0.48390000  0.24320000  0.70310000  1.0
  H  H36  1  0.82630000  0.38640000  0.69850000  1.0
  H  H37  1  0.77540000  0.52470000  0.69420000  1.0
  H  H38  1  0.44780000  0.44630000  0.79950000  1.0
  H  H39  1  0.12760000  0.29860000  0.79830000  1.0
  H  H40  1  0.98390000  0.25680000  0.79690000  1.0
  H  H41  1  0.32630000  0.11360000  0.80150000  1.0
  H  H42  1  0.27540000  0.97530000  0.80580000  1.0
  H  H43  1  0.55220000  0.55370000  0.79950000  1.0
  H  H44  1  0.87240000  0.70140000  0.79830000  1.0
  H  H45  1  0.01610000  0.74320000  0.79690000  1.0
  H  H46  1  0.67370000  0.88640000  0.80150000  1.0
  H  H47  1  0.72460000  0.02470000  0.80580000  1.0
  C  C48  1  0.94870000  0.05300000  0.17570000  1.0
  C  C49  1  0.62690000  0.20490000  0.17470000  1.0
  C  C50  1  0.55540000  0.22200000  0.09430000  1.0
  C  C51  1  0.48520000  0.24310000  0.17310000  1.0
  C  C52  1  0.82410000  0.38640000  0.17780000  1.0
  C  C53  1  0.80270000  0.45680000  0.08750000  1.0
  C  C54  1  0.77550000  0.52380000  0.18200000  1.0
  C  C55  1  0.05130000  0.94700000  0.17570000  1.0
  C  C56  1  0.37310000  0.79510000  0.17470000  1.0
  C  C57  1  0.44460000  0.77800000  0.09430000  1.0
  C  C58  1  0.51480000  0.75690000  0.17310000  1.0
  C  C59  1  0.17590000  0.61360000  0.17780000  1.0
  C  C60  1  0.19730000  0.54320000  0.08750000  1.0
  C  C61  1  0.22450000  0.47620000  0.18200000  1.0
  C  C62  1  0.55130000  0.55300000  0.32430000  1.0
  C  C63  1  0.87310000  0.70490000  0.32530000  1.0
  C  C64  1  0.94460000  0.72200000  0.40570000  1.0
  C  C65  1  0.01480000  0.74310000  0.32690000  1.0
  C  C66  1  0.67590000  0.88640000  0.32220000  1.0
  C  C67  1  0.69730000  0.95680000  0.41250000  1.0
  C  C68  1  0.72450000  0.02380000  0.31800000  1.0
  C  C69  1  0.44870000  0.44700000  0.32430000  1.0
  C  C70  1  0.12690000  0.29510000  0.32530000  1.0
  C  C71  1  0.05540000  0.27800000  0.40570000  1.0
  C  C72  1  0.98520000  0.25690000  0.32690000  1.0
  C  C73  1  0.32410000  0.11360000  0.32220000  1.0
  C  C74  1  0.30270000  0.04320000  0.41250000  1.0
  C  C75  1  0.27550000  0.97620000  0.31800000  1.0
  C  C76  1  0.05130000  0.94700000  0.82430000  1.0
  C  C77  1  0.37310000  0.79510000  0.82530000  1.0
  C  C78  1  0.44460000  0.77800000  0.90570000  1.0
  C  C79  1  0.51480000  0.75690000  0.82690000  1.0
  C  C80  1  0.17590000  0.61360000  0.82220000  1.0
  C  C81  1  0.19730000  0.54320000  0.91250000  1.0
  C  C82  1  0.22450000  0.47620000  0.81800000  1.0
  C  C83  1  0.94870000  0.05300000  0.82430000  1.0
  C  C84  1  0.62690000  0.20490000  0.82530000  1.0
  C  C85  1  0.55540000  0.22200000  0.90570000  1.0
  C  C86  1  0.48520000  0.24310000  0.82690000  1.0
  C  C87  1  0.82410000  0.38640000  0.82220000  1.0
  C  C88  1  0.80270000  0.45680000  0.91250000  1.0
  C  C89  1  0.77550000  0.52380000  0.81800000  1.0
  C  C90  1  0.44870000  0.44700000  0.67570000  1.0
  C  C91  1  0.12690000  0.29510000  0.67470000  1.0
  C  C92  1  0.05540000  0.27800000  0.59430000  1.0
  C  C93  1  0.98520000  0.25690000  0.67310000  1.0
  C  C94  1  0.32410000  0.11360000  0.67780000  1.0
  C  C95  1  0.30270000  0.04320000  0.58750000  1.0
  C  C96  1  0.27550000  0.97620000  0.68200000  1.0
  C  C97  1  0.55130000  0.55300000  0.67570000  1.0
  C  C98  1  0.87310000  0.70490000  0.67470000  1.0
  C  C99  1  0.94460000  0.72200000  0.59430000  1.0
  C  C100  1  0.01480000  0.74310000  0.67310000  1.0
  C  C101  1  0.67590000  0.88640000  0.67780000  1.0
  C  C102  1  0.69730000  0.95680000  0.58750000  1.0
  C  C103  1  0.72450000  0.02380000  0.68200000  1.0
  C  C104  1  0.00000000  0.00000000  0.08830000  1.0
  C  C105  1  0.50000000  0.50000000  0.41170000  1.0
  C  C106  1  0.00000000  0.00000000  0.91170000  1.0
  C  C107  1  0.50000000  0.50000000  0.58830000  1.0
  N  N108  1  0.90310000  0.10050000  0.09040000  1.0
  N  N109  1  0.69320000  0.19310000  0.09130000  1.0
  N  N110  1  0.42140000  0.26270000  0.09290000  1.0
  N  N111  1  0.84080000  0.32080000  0.09090000  1.0
  N  N112  1  0.74990000  0.58580000  0.08740000  1.0
  N  N113  1  0.09690000  0.89950000  0.09040000  1.0
  N  N114  1  0.30680000  0.80690000  0.09130000  1.0
  N  N115  1  0.57860000  0.73730000  0.09290000  1.0
  N  N116  1  0.15920000  0.67920000  0.09090000  1.0
  N  N117  1  0.25010000  0.41420000  0.08740000  1.0
  N  N118  1  0.59690000  0.60050000  0.40960000  1.0
  N  N119  1  0.80680000  0.69310000  0.40870000  1.0
  N  N120  1  0.07860000  0.76270000  0.40710000  1.0
  N  N121  1  0.65920000  0.82080000  0.40910000  1.0
  N  N122  1  0.75010000  0.08580000  0.41260000  1.0
  N  N123  1  0.40310000  0.39950000  0.40960000  1.0
  N  N124  1  0.19320000  0.30690000  0.40870000  1.0
  N  N125  1  0.92140000  0.23730000  0.40710000  1.0
  N  N126  1  0.34080000  0.17920000  0.40910000  1.0
  N  N127  1  0.24990000  0.91420000  0.41260000  1.0
  N  N128  1  0.09690000  0.89950000  0.90960000  1.0
  N  N129  1  0.30680000  0.80690000  0.90870000  1.0
  N  N130  1  0.57860000  0.73730000  0.90710000  1.0
  N  N131  1  0.15920000  0.67920000  0.90910000  1.0
  N  N132  1  0.25010000  0.41420000  0.91260000  1.0
  N  N133  1  0.90310000  0.10050000  0.90960000  1.0
  N  N134  1  0.69320000  0.19310000  0.90870000  1.0
  N  N135  1  0.42140000  0.26270000  0.90710000  1.0
  N  N136  1  0.84080000  0.32080000  0.90910000  1.0
  N  N137  1  0.74990000  0.58580000  0.91260000  1.0
  N  N138  1  0.40310000  0.39950000  0.59040000  1.0
  N  N139  1  0.19320000  0.30690000  0.59130000  1.0
  N  N140  1  0.92140000  0.23730000  0.59290000  1.0
  N  N141  1  0.34080000  0.17920000  0.59090000  1.0
  N  N142  1  0.24990000  0.91420000  0.58740000  1.0
  N  N143  1  0.59690000  0.60050000  0.59040000  1.0
  N  N144  1  0.80680000  0.69310000  0.59130000  1.0
  N  N145  1  0.07860000  0.76270000  0.59290000  1.0
  N  N146  1  0.65920000  0.82080000  0.59090000  1.0
  N  N147  1  0.75010000  0.08580000  0.58740000  1.0
