# generated using pymatgen
data_Mn2H13C24NO9
_symmetry_space_group_name_H-M   'P 1'
_cell_length_a   12.64600000
_cell_length_b   14.83400000
_cell_length_c   16.05210000
_cell_angle_alpha   90.00000000
_cell_angle_beta   98.12630000
_cell_angle_gamma   90.00000000
_symmetry_Int_Tables_number   1
_chemical_formula_structural   Mn2H13C24NO9
_chemical_formula_sum   'Mn8 H52 C96 N4 O36'
_cell_volume   2980.98961427
_cell_formula_units_Z   4
loop_
 _symmetry_equiv_pos_site_id
 _symmetry_equiv_pos_as_xyz
  1  'x, y, z'
loop_
 _atom_site_type_symbol
 _atom_site_label
 _atom_site_symmetry_multiplicity
 _atom_site_fract_x
 _atom_site_fract_y
 _atom_site_fract_z
 _atom_site_occupancy
  Mn  Mn0  1  0.02249000  0.24871000  0.01530000  1.0
  Mn  Mn1  1  0.47751000  0.74871000  0.48470000  1.0
  Mn  Mn2  1  0.97751000  0.75129000  0.98470000  1.0
  Mn  Mn3  1  0.52249000  0.25129000  0.51530000  1.0
  Mn  Mn4  1  0.00000000  0.00000000  0.00000000  1.0
  Mn  Mn5  1  0.50000000  0.50000000  0.50000000  1.0
  Mn  Mn6  1  0.00000000  0.50000000  0.00000000  1.0
  Mn  Mn7  1  0.50000000  0.00000000  0.50000000  1.0
  H  H8  1  0.71870000  0.05470000  0.80870000  1.0
  H  H9  1  0.54470000  0.05290000  0.74610000  1.0
  H  H10  1  0.47230000  0.24590000  0.90490000  1.0
  H  H11  1  0.65260000  0.25420000  0.96130000  1.0
  H  H12  1  0.20750000  0.11110000  0.61460000  1.0
  H  H13  1  0.32090000  0.14010000  0.89750000  1.0
  H  H14  1  0.05090000  0.01690000  0.60280000  1.0
  H  H15  1  0.87580000  0.01050000  0.54380000  1.0
  H  H16  1  0.80740000  0.20380000  0.70460000  1.0
  H  H17  1  0.98090000  0.20130000  0.76740000  1.0
  H  H18  1  0.26590000  0.06610000  0.29820000  1.0
  H  H19  1  0.26070000  0.17170000  0.29760000  1.0
  H  H20  1  0.33890000  0.12160000  0.24570000  1.0
  H  H21  1  0.78130000  0.55470000  0.69130000  1.0
  H  H22  1  0.95530000  0.55290000  0.75390000  1.0
  H  H23  1  0.02770000  0.74590000  0.59510000  1.0
  H  H24  1  0.84740000  0.75420000  0.53870000  1.0
  H  H25  1  0.29250000  0.61110000  0.88540000  1.0
  H  H26  1  0.17910000  0.64010000  0.60250000  1.0
  H  H27  1  0.44910000  0.51690000  0.89720000  1.0
  H  H28  1  0.62420000  0.51050000  0.95620000  1.0
  H  H29  1  0.69260000  0.70380000  0.79540000  1.0
  H  H30  1  0.51910000  0.70130000  0.73260000  1.0
  H  H31  1  0.23410000  0.56610000  0.20180000  1.0
  H  H32  1  0.23930000  0.67170000  0.20240000  1.0
  H  H33  1  0.16110000  0.62160000  0.25430000  1.0
  H  H34  1  0.28130000  0.94530000  0.19130000  1.0
  H  H35  1  0.45530000  0.94710000  0.25390000  1.0
  H  H36  1  0.52770000  0.75410000  0.09510000  1.0
  H  H37  1  0.34740000  0.74580000  0.03870000  1.0
  H  H38  1  0.79250000  0.88890000  0.38540000  1.0
  H  H39  1  0.67910000  0.85990000  0.10250000  1.0
  H  H40  1  0.94910000  0.98310000  0.39720000  1.0
  H  H41  1  0.12420000  0.98950000  0.45620000  1.0
  H  H42  1  0.19260000  0.79620000  0.29540000  1.0
  H  H43  1  0.01910000  0.79870000  0.23260000  1.0
  H  H44  1  0.73410000  0.93390000  0.70180000  1.0
  H  H45  1  0.73930000  0.82830000  0.70240000  1.0
  H  H46  1  0.66110000  0.87840000  0.75430000  1.0
  H  H47  1  0.21870000  0.44530000  0.30870000  1.0
  H  H48  1  0.04470000  0.44710000  0.24610000  1.0
  H  H49  1  0.97230000  0.25410000  0.40490000  1.0
  H  H50  1  0.15260000  0.24580000  0.46130000  1.0
  H  H51  1  0.70750000  0.38890000  0.11460000  1.0
  H  H52  1  0.82090000  0.35990000  0.39750000  1.0
  H  H53  1  0.55090000  0.48310000  0.10280000  1.0
  H  H54  1  0.37580000  0.48950000  0.04380000  1.0
  H  H55  1  0.30740000  0.29620000  0.20460000  1.0
  H  H56  1  0.48090000  0.29870000  0.26740000  1.0
  H  H57  1  0.76590000  0.43390000  0.79820000  1.0
  H  H58  1  0.76070000  0.32830000  0.79760000  1.0
  H  H59  1  0.83890000  0.37840000  0.74570000  1.0
  C  C60  1  0.82000000  0.15010000  0.93560000  1.0
  C  C61  1  0.70510000  0.15370000  0.89260000  1.0
  C  C62  1  0.67000000  0.09390000  0.82780000  1.0
  C  C63  1  0.56540000  0.09130000  0.79120000  1.0
  C  C64  1  0.48950000  0.14660000  0.82160000  1.0
  C  C65  1  0.52180000  0.20790000  0.88520000  1.0
  C  C66  1  0.63030000  0.21200000  0.91970000  1.0
  C  C67  1  0.37190000  0.13870000  0.78600000  1.0
  C  C68  1  0.33630000  0.12930000  0.69950000  1.0
  C  C69  1  0.40930000  0.13370000  0.63260000  1.0
  C  C70  1  0.22980000  0.11830000  0.67200000  1.0
  C  C71  1  0.15250000  0.11760000  0.72710000  1.0
  C  C72  1  0.18830000  0.12660000  0.81390000  1.0
  C  C73  1  0.11390000  0.12270000  0.88040000  1.0
  C  C74  1  0.29730000  0.13580000  0.84010000  1.0
  C  C75  1  0.03460000  0.11240000  0.69100000  1.0
  C  C76  1  0.00110000  0.05360000  0.62360000  1.0
  C  C77  1  0.89680000  0.04980000  0.58830000  1.0
  C  C78  1  0.82060000  0.10510000  0.61900000  1.0
  C  C79  1  0.85550000  0.16440000  0.68510000  1.0
  C  C80  1  0.96010000  0.16450000  0.72100000  1.0
  C  C81  1  0.70380000  0.10780000  0.57820000  1.0
  C  C82  1  0.15010000  0.11630000  0.13470000  1.0
  C  C83  1  0.27030000  0.11920000  0.26460000  1.0
  C  C84  1  0.68000000  0.65010000  0.56440000  1.0
  C  C85  1  0.79490000  0.65370000  0.60740000  1.0
  C  C86  1  0.83000000  0.59390000  0.67220000  1.0
  C  C87  1  0.93460000  0.59130000  0.70880000  1.0
  C  C88  1  0.01050000  0.64660000  0.67840000  1.0
  C  C89  1  0.97820000  0.70790000  0.61480000  1.0
  C  C90  1  0.86970000  0.71200000  0.58030000  1.0
  C  C91  1  0.12810000  0.63870000  0.71400000  1.0
  C  C92  1  0.16370000  0.62930000  0.80050000  1.0
  C  C93  1  0.09070000  0.63370000  0.86740000  1.0
  C  C94  1  0.27020000  0.61830000  0.82800000  1.0
  C  C95  1  0.34750000  0.61760000  0.77290000  1.0
  C  C96  1  0.31170000  0.62660000  0.68610000  1.0
  C  C97  1  0.38610000  0.62270000  0.61960000  1.0
  C  C98  1  0.20270000  0.63580000  0.65990000  1.0
  C  C99  1  0.46540000  0.61240000  0.80900000  1.0
  C  C100  1  0.49890000  0.55360000  0.87640000  1.0
  C  C101  1  0.60320000  0.54980000  0.91170000  1.0
  C  C102  1  0.67940000  0.60510000  0.88100000  1.0
  C  C103  1  0.64450000  0.66440000  0.81490000  1.0
  C  C104  1  0.53990000  0.66450000  0.77900000  1.0
  C  C105  1  0.79620000  0.60780000  0.92180000  1.0
  C  C106  1  0.34990000  0.61630000  0.36530000  1.0
  C  C107  1  0.22970000  0.61920000  0.23540000  1.0
  C  C108  1  0.18000000  0.84990000  0.06440000  1.0
  C  C109  1  0.29490000  0.84630000  0.10740000  1.0
  C  C110  1  0.33000000  0.90610000  0.17220000  1.0
  C  C111  1  0.43460000  0.90870000  0.20880000  1.0
  C  C112  1  0.51050000  0.85340000  0.17840000  1.0
  C  C113  1  0.47820000  0.79210000  0.11480000  1.0
  C  C114  1  0.36970000  0.78800000  0.08030000  1.0
  C  C115  1  0.62810000  0.86130000  0.21400000  1.0
  C  C116  1  0.66370000  0.87070000  0.30050000  1.0
  C  C117  1  0.59070000  0.86630000  0.36740000  1.0
  C  C118  1  0.77020000  0.88170000  0.32800000  1.0
  C  C119  1  0.84750000  0.88240000  0.27290000  1.0
  C  C120  1  0.81170000  0.87340000  0.18610000  1.0
  C  C121  1  0.88610000  0.87730000  0.11960000  1.0
  C  C122  1  0.70270000  0.86420000  0.15990000  1.0
  C  C123  1  0.96540000  0.88760000  0.30900000  1.0
  C  C124  1  0.99890000  0.94640000  0.37640000  1.0
  C  C125  1  0.10320000  0.95020000  0.41170000  1.0
  C  C126  1  0.17940000  0.89490000  0.38100000  1.0
  C  C127  1  0.14450000  0.83560000  0.31490000  1.0
  C  C128  1  0.03990000  0.83550000  0.27900000  1.0
  C  C129  1  0.29620000  0.89220000  0.42180000  1.0
  C  C130  1  0.84990000  0.88370000  0.86530000  1.0
  C  C131  1  0.72970000  0.88080000  0.73540000  1.0
  C  C132  1  0.32000000  0.34990000  0.43560000  1.0
  C  C133  1  0.20510000  0.34630000  0.39260000  1.0
  C  C134  1  0.17000000  0.40610000  0.32780000  1.0
  C  C135  1  0.06540000  0.40870000  0.29120000  1.0
  C  C136  1  0.98950000  0.35340000  0.32160000  1.0
  C  C137  1  0.02180000  0.29210000  0.38520000  1.0
  C  C138  1  0.13030000  0.28800000  0.41970000  1.0
  C  C139  1  0.87190000  0.36130000  0.28600000  1.0
  C  C140  1  0.83630000  0.37070000  0.19950000  1.0
  C  C141  1  0.90930000  0.36630000  0.13260000  1.0
  C  C142  1  0.72980000  0.38170000  0.17200000  1.0
  C  C143  1  0.65250000  0.38240000  0.22710000  1.0
  C  C144  1  0.68830000  0.37340000  0.31390000  1.0
  C  C145  1  0.61390000  0.37730000  0.38040000  1.0
  C  C146  1  0.79730000  0.36420000  0.34010000  1.0
  C  C147  1  0.53460000  0.38760000  0.19100000  1.0
  C  C148  1  0.50110000  0.44640000  0.12360000  1.0
  C  C149  1  0.39680000  0.45020000  0.08830000  1.0
  C  C150  1  0.32060000  0.39490000  0.11900000  1.0
  C  C151  1  0.35550000  0.33560000  0.18510000  1.0
  C  C152  1  0.46010000  0.33550000  0.22100000  1.0
  C  C153  1  0.20380000  0.39220000  0.07820000  1.0
  C  C154  1  0.65010000  0.38370000  0.63470000  1.0
  C  C155  1  0.77030000  0.38080000  0.76460000  1.0
  N  N156  1  0.18790000  0.11620000  0.19280000  1.0
  N  N157  1  0.31210000  0.61620000  0.30720000  1.0
  N  N158  1  0.81210000  0.88380000  0.80720000  1.0
  N  N159  1  0.68790000  0.38380000  0.69280000  1.0
  O  O160  1  0.86070000  0.22430000  0.95880000  1.0
  O  O161  1  0.86050000  0.07530000  0.94550000  1.0
  O  O162  1  0.45440000  0.20810000  0.62340000  1.0
  O  O163  1  0.41870000  0.06450000  0.59010000  1.0
  O  O164  1  0.09620000  0.19590000  0.91390000  1.0
  O  O165  1  0.08090000  0.04680000  0.89870000  1.0
  O  O166  1  0.66000000  0.03510000  0.55930000  1.0
  O  O167  1  0.66500000  0.18520000  0.56670000  1.0
  O  O168  1  0.07200000  0.11780000  0.07950000  1.0
  O  O169  1  0.63930000  0.72430000  0.54120000  1.0
  O  O170  1  0.63950000  0.57530000  0.55450000  1.0
  O  O171  1  0.04560000  0.70810000  0.87660000  1.0
  O  O172  1  0.08130000  0.56450000  0.90990000  1.0
  O  O173  1  0.40380000  0.69590000  0.58610000  1.0
  O  O174  1  0.41910000  0.54680000  0.60130000  1.0
  O  O175  1  0.84000000  0.53510000  0.94070000  1.0
  O  O176  1  0.83500000  0.68520000  0.93330000  1.0
  O  O177  1  0.42800000  0.61780000  0.42050000  1.0
  O  O178  1  0.13930000  0.77570000  0.04120000  1.0
  O  O179  1  0.13950000  0.92470000  0.05450000  1.0
  O  O180  1  0.54560000  0.79190000  0.37660000  1.0
  O  O181  1  0.58130000  0.93550000  0.40990000  1.0
  O  O182  1  0.90380000  0.80410000  0.08610000  1.0
  O  O183  1  0.91910000  0.95320000  0.10130000  1.0
  O  O184  1  0.34000000  0.96490000  0.44070000  1.0
  O  O185  1  0.33500000  0.81480000  0.43330000  1.0
  O  O186  1  0.92800000  0.88220000  0.92050000  1.0
  O  O187  1  0.36070000  0.27570000  0.45880000  1.0
  O  O188  1  0.36050000  0.42470000  0.44550000  1.0
  O  O189  1  0.95440000  0.29190000  0.12340000  1.0
  O  O190  1  0.91870000  0.43550000  0.09010000  1.0
  O  O191  1  0.59620000  0.30410000  0.41390000  1.0
  O  O192  1  0.58090000  0.45320000  0.39870000  1.0
  O  O193  1  0.16000000  0.46490000  0.05930000  1.0
  O  O194  1  0.16500000  0.31480000  0.06670000  1.0
  O  O195  1  0.57200000  0.38220000  0.57950000  1.0
