# generated using pymatgen
data_CdH4C8O5
_symmetry_space_group_name_H-M   'P 1'
_cell_length_a   7.15200000
_cell_length_b   18.28300000
_cell_length_c   19.94700000
_cell_angle_alpha   90.00000000
_cell_angle_beta   90.39500000
_cell_angle_gamma   90.00000000
_symmetry_Int_Tables_number   1
_chemical_formula_structural   CdH4C8O5
_chemical_formula_sum   'Cd8 H32 C64 O40'
_cell_volume   2608.20805656
_cell_formula_units_Z   8
loop_
 _symmetry_equiv_pos_site_id
 _symmetry_equiv_pos_as_xyz
  1  'x, y, z'
loop_
 _atom_site_type_symbol
 _atom_site_label
 _atom_site_symmetry_multiplicity
 _atom_site_fract_x
 _atom_site_fract_y
 _atom_site_fract_z
 _atom_site_occupancy
  Cd  Cd0  1  0.52822000  0.26454000  0.35267000  1.0
  Cd  Cd1  1  0.04045000  0.23978000  0.32701000  1.0
  Cd  Cd2  1  0.97178000  0.76454000  0.14733000  1.0
  Cd  Cd3  1  0.45955000  0.73978000  0.17299000  1.0
  Cd  Cd4  1  0.47178000  0.73546000  0.64733000  1.0
  Cd  Cd5  1  0.95955000  0.76022000  0.67299000  1.0
  Cd  Cd6  1  0.02822000  0.23546000  0.85267000  1.0
  Cd  Cd7  1  0.54045000  0.26022000  0.82701000  1.0
  H  H8  1  0.14110000  0.07190000  0.21720000  1.0
  H  H9  1  0.37120000  0.17560000  0.64110000  1.0
  H  H10  1  0.88030000  0.00460000  0.22790000  1.0
  H  H11  1  0.42970000  0.13730000  0.23530000  1.0
  H  H12  1  0.37640000  0.93120000  0.16760000  1.0
  H  H13  1  0.63750000  0.21680000  0.58070000  1.0
  H  H14  1  0.08180000  0.18240000  0.70260000  1.0
  H  H15  1  0.13810000  0.16620000  0.50280000  1.0
  H  H16  1  0.35890000  0.57190000  0.28280000  1.0
  H  H17  1  0.12880000  0.67560000  0.85890000  1.0
  H  H18  1  0.61970000  0.50460000  0.27210000  1.0
  H  H19  1  0.07030000  0.63730000  0.26470000  1.0
  H  H20  1  0.12360000  0.43120000  0.33240000  1.0
  H  H21  1  0.86250000  0.71680000  0.91930000  1.0
  H  H22  1  0.41820000  0.68240000  0.79740000  1.0
  H  H23  1  0.36190000  0.66620000  0.99720000  1.0
  H  H24  1  0.85890000  0.92810000  0.78280000  1.0
  H  H25  1  0.62880000  0.82440000  0.35890000  1.0
  H  H26  1  0.11970000  0.99540000  0.77210000  1.0
  H  H27  1  0.57030000  0.86270000  0.76470000  1.0
  H  H28  1  0.62360000  0.06880000  0.83240000  1.0
  H  H29  1  0.36250000  0.78320000  0.41930000  1.0
  H  H30  1  0.91820000  0.81760000  0.29740000  1.0
  H  H31  1  0.86190000  0.83380000  0.49720000  1.0
  H  H32  1  0.64110000  0.42810000  0.71720000  1.0
  H  H33  1  0.87120000  0.32440000  0.14110000  1.0
  H  H34  1  0.38030000  0.49540000  0.72790000  1.0
  H  H35  1  0.92970000  0.36270000  0.73530000  1.0
  H  H36  1  0.87640000  0.56880000  0.66760000  1.0
  H  H37  1  0.13750000  0.28320000  0.08070000  1.0
  H  H38  1  0.58180000  0.31760000  0.20260000  1.0
  H  H39  1  0.63810000  0.33380000  0.00280000  1.0
  C  C40  1  0.79220000  0.14130000  0.26350000  1.0
  C  C41  1  0.67420000  0.08020000  0.23610000  1.0
  C  C42  1  0.75340000  0.01270000  0.22060000  1.0
  C  C43  1  0.48250000  0.09200000  0.22580000  1.0
  C  C44  1  0.64040000  0.95750000  0.19420000  1.0
  C  C45  1  0.45090000  0.96850000  0.18480000  1.0
  C  C46  1  0.37240000  0.03550000  0.20130000  1.0
  C  C47  1  0.72640000  0.88610000  0.17410000  1.0
  C  C48  1  0.80300000  0.20410000  0.46130000  1.0
  C  C49  1  0.87730000  0.19430000  0.53130000  1.0
  C  C50  1  0.76350000  0.20580000  0.58660000  1.0
  C  C51  1  0.83970000  0.20040000  0.65070000  1.0
  C  C52  1  0.02980000  0.18450000  0.65970000  1.0
  C  C53  1  0.13970000  0.17160000  0.60370000  1.0
  C  C54  1  0.06400000  0.17580000  0.53990000  1.0
  C  C55  1  0.71950000  0.21280000  0.71110000  1.0
  C  C56  1  0.70780000  0.64130000  0.23650000  1.0
  C  C57  1  0.82580000  0.58020000  0.26390000  1.0
  C  C58  1  0.74660000  0.51270000  0.27940000  1.0
  C  C59  1  0.01750000  0.59200000  0.27420000  1.0
  C  C60  1  0.85960000  0.45750000  0.30580000  1.0
  C  C61  1  0.04910000  0.46850000  0.31520000  1.0
  C  C62  1  0.12760000  0.53550000  0.29870000  1.0
  C  C63  1  0.77360000  0.38610000  0.32590000  1.0
  C  C64  1  0.69700000  0.70410000  0.03870000  1.0
  C  C65  1  0.62270000  0.69430000  0.96870000  1.0
  C  C66  1  0.73650000  0.70580000  0.91340000  1.0
  C  C67  1  0.66030000  0.70040000  0.84930000  1.0
  C  C68  1  0.47020000  0.68450000  0.84030000  1.0
  C  C69  1  0.36030000  0.67160000  0.89630000  1.0
  C  C70  1  0.43600000  0.67580000  0.96010000  1.0
  C  C71  1  0.78050000  0.71280000  0.78890000  1.0
  C  C72  1  0.20780000  0.85870000  0.73650000  1.0
  C  C73  1  0.32580000  0.91980000  0.76390000  1.0
  C  C74  1  0.24660000  0.98730000  0.77940000  1.0
  C  C75  1  0.51750000  0.90800000  0.77420000  1.0
  C  C76  1  0.35960000  0.04250000  0.80580000  1.0
  C  C77  1  0.54910000  0.03150000  0.81520000  1.0
  C  C78  1  0.62760000  0.96450000  0.79870000  1.0
  C  C79  1  0.27360000  0.11390000  0.82590000  1.0
  C  C80  1  0.19700000  0.79590000  0.53870000  1.0
  C  C81  1  0.12270000  0.80570000  0.46870000  1.0
  C  C82  1  0.23650000  0.79420000  0.41340000  1.0
  C  C83  1  0.16030000  0.79960000  0.34930000  1.0
  C  C84  1  0.97020000  0.81550000  0.34030000  1.0
  C  C85  1  0.86030000  0.82840000  0.39630000  1.0
  C  C86  1  0.93600000  0.82420000  0.46010000  1.0
  C  C87  1  0.28050000  0.78720000  0.28890000  1.0
  C  C88  1  0.29220000  0.35870000  0.76350000  1.0
  C  C89  1  0.17420000  0.41980000  0.73610000  1.0
  C  C90  1  0.25340000  0.48730000  0.72060000  1.0
  C  C91  1  0.98250000  0.40800000  0.72580000  1.0
  C  C92  1  0.14040000  0.54250000  0.69420000  1.0
  C  C93  1  0.95090000  0.53150000  0.68480000  1.0
  C  C94  1  0.87240000  0.46450000  0.70130000  1.0
  C  C95  1  0.22640000  0.61390000  0.67410000  1.0
  C  C96  1  0.30300000  0.29590000  0.96130000  1.0
  C  C97  1  0.37730000  0.30570000  0.03130000  1.0
  C  C98  1  0.26350000  0.29420000  0.08660000  1.0
  C  C99  1  0.33970000  0.29960000  0.15070000  1.0
  C  C100  1  0.52980000  0.31550000  0.15970000  1.0
  C  C101  1  0.63970000  0.32840000  0.10370000  1.0
  C  C102  1  0.56400000  0.32420000  0.03990000  1.0
  C  C103  1  0.21950000  0.28720000  0.21110000  1.0
  O  O104  1  0.71540000  0.20030000  0.28070000  1.0
  O  O105  1  0.96650000  0.13260000  0.26810000  1.0
  O  O106  1  0.89830000  0.87610000  0.18530000  1.0
  O  O107  1  0.62680000  0.83870000  0.14470000  1.0
  O  O108  1  0.90040000  0.18010000  0.41400000  1.0
  O  O109  1  0.18520000  0.04390000  0.18940000  1.0
  O  O110  1  0.64710000  0.23530000  0.45330000  1.0
  O  O111  1  0.54580000  0.20600000  0.70730000  1.0
  O  O112  1  0.79750000  0.23170000  0.76550000  1.0
  O  O113  1  0.32580000  0.15530000  0.60820000  1.0
  O  O114  1  0.78460000  0.70030000  0.21930000  1.0
  O  O115  1  0.53350000  0.63260000  0.23190000  1.0
  O  O116  1  0.60170000  0.37610000  0.31470000  1.0
  O  O117  1  0.87320000  0.33870000  0.35530000  1.0
  O  O118  1  0.59960000  0.68010000  0.08600000  1.0
  O  O119  1  0.31480000  0.54390000  0.31060000  1.0
  O  O120  1  0.85290000  0.73530000  0.04670000  1.0
  O  O121  1  0.95420000  0.70600000  0.79270000  1.0
  O  O122  1  0.70250000  0.73170000  0.73450000  1.0
  O  O123  1  0.17420000  0.65530000  0.89180000  1.0
  O  O124  1  0.28460000  0.79970000  0.71930000  1.0
  O  O125  1  0.03350000  0.86740000  0.73190000  1.0
  O  O126  1  0.10170000  0.12390000  0.81470000  1.0
  O  O127  1  0.37320000  0.16130000  0.85530000  1.0
  O  O128  1  0.09960000  0.81990000  0.58600000  1.0
  O  O129  1  0.81480000  0.95610000  0.81060000  1.0
  O  O130  1  0.35290000  0.76470000  0.54670000  1.0
  O  O131  1  0.45420000  0.79400000  0.29270000  1.0
  O  O132  1  0.20250000  0.76830000  0.23450000  1.0
  O  O133  1  0.67420000  0.84470000  0.39180000  1.0
  O  O134  1  0.21540000  0.29970000  0.78070000  1.0
  O  O135  1  0.46650000  0.36740000  0.76810000  1.0
  O  O136  1  0.39830000  0.62390000  0.68530000  1.0
  O  O137  1  0.12680000  0.66130000  0.64470000  1.0
  O  O138  1  0.40040000  0.31990000  0.91400000  1.0
  O  O139  1  0.68520000  0.45610000  0.68940000  1.0
  O  O140  1  0.14710000  0.26470000  0.95330000  1.0
  O  O141  1  0.04580000  0.29400000  0.20730000  1.0
  O  O142  1  0.29750000  0.26830000  0.26550000  1.0
  O  O143  1  0.82580000  0.34470000  0.10820000  1.0
