# generated using pymatgen
data_Zr3FeH24C48N4ClO12
_symmetry_space_group_name_H-M   'P 1'
_cell_length_a   17.14300000
_cell_length_b   41.96800000
_cell_length_c   41.96800000
_cell_angle_alpha   120.00000000
_cell_angle_beta   90.00000000
_cell_angle_gamma   90.00000000
_symmetry_Int_Tables_number   1
_chemical_formula_structural   Zr3FeH24C48N4ClO12
_chemical_formula_sum   'Zr18 Fe6 H144 C288 N24 Cl6 O72'
_cell_volume   26148.93486827
_cell_formula_units_Z   6
loop_
 _symmetry_equiv_pos_site_id
 _symmetry_equiv_pos_as_xyz
  1  'x, y, z'
loop_
 _atom_site_type_symbol
 _atom_site_label
 _atom_site_symmetry_multiplicity
 _atom_site_fract_x
 _atom_site_fract_y
 _atom_site_fract_z
 _atom_site_occupancy
  Zr  Zr0  1  0.89734000  0.54203000  0.54203000  1.0
  Zr  Zr1  1  0.89734000  0.00000000  0.45797000  1.0
  Zr  Zr2  1  0.89734000  0.45797000  0.00000000  1.0
  Zr  Zr3  1  0.89734000  0.45797000  0.45797000  1.0
  Zr  Zr4  1  0.89734000  0.00000000  0.54203000  1.0
  Zr  Zr5  1  0.89734000  0.54203000  0.00000000  1.0
  Zr  Zr6  1  0.10266000  0.00000000  0.45797000  1.0
  Zr  Zr7  1  0.10266000  0.54203000  0.54203000  1.0
  Zr  Zr8  1  0.10266000  0.45797000  0.00000000  1.0
  Zr  Zr9  1  0.10266000  0.00000000  0.54203000  1.0
  Zr  Zr10  1  0.10266000  0.45797000  0.45797000  1.0
  Zr  Zr11  1  0.10266000  0.54203000  0.00000000  1.0
  Zr  Zr12  1  0.00000000  0.46618000  0.53382000  1.0
  Zr  Zr13  1  0.00000000  0.06764000  0.53382000  1.0
  Zr  Zr14  1  0.00000000  0.46618000  0.93236000  1.0
  Zr  Zr15  1  0.00000000  0.53382000  0.46618000  1.0
  Zr  Zr16  1  0.00000000  0.93236000  0.46618000  1.0
  Zr  Zr17  1  0.00000000  0.53382000  0.06764000  1.0
  Fe  Fe18  1  0.50000000  0.48800000  0.74400000  1.0
  Fe  Fe19  1  0.50000000  0.25600000  0.51200000  1.0
  Fe  Fe20  1  0.50000000  0.25600000  0.74400000  1.0
  Fe  Fe21  1  0.50000000  0.51200000  0.25600000  1.0
  Fe  Fe22  1  0.50000000  0.74400000  0.48800000  1.0
  Fe  Fe23  1  0.50000000  0.74400000  0.25600000  1.0
  H  H24  1  0.84230000  0.45320000  0.60960000  1.0
  H  H25  1  0.79110000  0.50190000  0.72200000  1.0
  H  H26  1  0.76370000  0.55450000  0.63870000  1.0
  H  H27  1  0.67550000  0.55040000  0.67870000  1.0
  H  H28  1  0.75060000  0.45030000  0.64980000  1.0
  H  H29  1  0.57200000  0.49690000  0.63010000  1.0
  H  H30  1  0.84230000  0.15640000  0.54680000  1.0
  H  H31  1  0.79110000  0.22010000  0.49810000  1.0
  H  H32  1  0.76370000  0.08420000  0.44550000  1.0
  H  H33  1  0.67550000  0.12830000  0.44960000  1.0
  H  H34  1  0.75060000  0.19950000  0.54970000  1.0
  H  H35  1  0.57200000  0.13320000  0.50310000  1.0
  H  H36  1  0.84230000  0.39040000  0.84360000  1.0
  H  H37  1  0.79110000  0.27800000  0.77990000  1.0
  H  H38  1  0.76370000  0.36130000  0.91580000  1.0
  H  H39  1  0.67550000  0.32130000  0.87170000  1.0
  H  H40  1  0.75060000  0.35020000  0.80050000  1.0
  H  H41  1  0.57200000  0.36990000  0.86680000  1.0
  H  H42  1  0.84230000  0.54680000  0.39040000  1.0
  H  H43  1  0.79110000  0.49810000  0.27800000  1.0
  H  H44  1  0.76370000  0.44550000  0.36130000  1.0
  H  H45  1  0.67550000  0.44960000  0.32130000  1.0
  H  H46  1  0.75060000  0.54970000  0.35020000  1.0
  H  H47  1  0.57200000  0.50310000  0.36990000  1.0
  H  H48  1  0.84230000  0.84360000  0.45320000  1.0
  H  H49  1  0.79110000  0.77990000  0.50190000  1.0
  H  H50  1  0.76370000  0.91580000  0.55450000  1.0
  H  H51  1  0.67550000  0.87170000  0.55040000  1.0
  H  H52  1  0.75060000  0.80050000  0.45030000  1.0
  H  H53  1  0.57200000  0.86680000  0.49690000  1.0
  H  H54  1  0.84230000  0.60960000  0.15640000  1.0
  H  H55  1  0.79110000  0.72200000  0.22010000  1.0
  H  H56  1  0.76370000  0.63870000  0.08420000  1.0
  H  H57  1  0.67550000  0.67870000  0.12830000  1.0
  H  H58  1  0.75060000  0.64980000  0.19950000  1.0
  H  H59  1  0.57200000  0.63010000  0.13320000  1.0
  H  H60  1  0.15770000  0.84360000  0.39040000  1.0
  H  H61  1  0.20890000  0.77990000  0.27800000  1.0
  H  H62  1  0.23630000  0.91580000  0.36130000  1.0
  H  H63  1  0.32450000  0.87170000  0.32130000  1.0
  H  H64  1  0.24940000  0.80050000  0.35020000  1.0
  H  H65  1  0.42800000  0.86680000  0.36990000  1.0
  H  H66  1  0.15770000  0.60960000  0.45320000  1.0
  H  H67  1  0.20890000  0.72200000  0.50190000  1.0
  H  H68  1  0.23630000  0.63870000  0.55450000  1.0
  H  H69  1  0.32450000  0.67870000  0.55040000  1.0
  H  H70  1  0.24940000  0.64980000  0.45030000  1.0
  H  H71  1  0.42800000  0.63010000  0.49690000  1.0
  H  H72  1  0.15770000  0.54680000  0.15640000  1.0
  H  H73  1  0.20890000  0.49810000  0.22010000  1.0
  H  H74  1  0.23630000  0.44550000  0.08420000  1.0
  H  H75  1  0.32450000  0.44960000  0.12830000  1.0
  H  H76  1  0.24940000  0.54970000  0.19950000  1.0
  H  H77  1  0.42800000  0.50310000  0.13320000  1.0
  H  H78  1  0.15770000  0.15640000  0.60960000  1.0
  H  H79  1  0.20890000  0.22010000  0.72200000  1.0
  H  H80  1  0.23630000  0.08420000  0.63870000  1.0
  H  H81  1  0.32450000  0.12830000  0.67870000  1.0
  H  H82  1  0.24940000  0.19950000  0.64980000  1.0
  H  H83  1  0.42800000  0.13320000  0.63010000  1.0
  H  H84  1  0.15770000  0.39040000  0.54680000  1.0
  H  H85  1  0.20890000  0.27800000  0.49810000  1.0
  H  H86  1  0.23630000  0.36130000  0.44550000  1.0
  H  H87  1  0.32450000  0.32130000  0.44960000  1.0
  H  H88  1  0.24940000  0.35020000  0.54970000  1.0
  H  H89  1  0.42800000  0.36990000  0.50310000  1.0
  H  H90  1  0.15770000  0.45320000  0.84360000  1.0
  H  H91  1  0.20890000  0.50190000  0.77990000  1.0
  H  H92  1  0.23630000  0.55450000  0.91580000  1.0
  H  H93  1  0.32450000  0.55040000  0.87170000  1.0
  H  H94  1  0.24940000  0.45030000  0.80050000  1.0
  H  H95  1  0.42800000  0.49690000  0.86680000  1.0
  H  H96  1  0.15770000  0.54680000  0.39040000  1.0
  H  H97  1  0.20890000  0.49810000  0.27800000  1.0
  H  H98  1  0.23630000  0.44550000  0.36130000  1.0
  H  H99  1  0.32450000  0.44960000  0.32130000  1.0
  H  H100  1  0.24940000  0.54970000  0.35020000  1.0
  H  H101  1  0.42800000  0.50310000  0.36990000  1.0
  H  H102  1  0.15770000  0.84360000  0.45320000  1.0
  H  H103  1  0.20890000  0.77990000  0.50190000  1.0
  H  H104  1  0.23630000  0.91580000  0.55450000  1.0
  H  H105  1  0.32450000  0.87170000  0.55040000  1.0
  H  H106  1  0.24940000  0.80050000  0.45030000  1.0
  H  H107  1  0.42800000  0.86680000  0.49690000  1.0
  H  H108  1  0.15770000  0.60960000  0.15640000  1.0
  H  H109  1  0.20890000  0.72200000  0.22010000  1.0
  H  H110  1  0.23630000  0.63870000  0.08420000  1.0
  H  H111  1  0.32450000  0.67870000  0.12830000  1.0
  H  H112  1  0.24940000  0.64980000  0.19950000  1.0
  H  H113  1  0.42800000  0.63010000  0.13320000  1.0
  H  H114  1  0.15770000  0.45320000  0.60960000  1.0
  H  H115  1  0.20890000  0.50190000  0.72200000  1.0
  H  H116  1  0.23630000  0.55450000  0.63870000  1.0
  H  H117  1  0.32450000  0.55040000  0.67870000  1.0
  H  H118  1  0.24940000  0.45030000  0.64980000  1.0
  H  H119  1  0.42800000  0.49690000  0.63010000  1.0
  H  H120  1  0.15770000  0.15640000  0.54680000  1.0
  H  H121  1  0.20890000  0.22010000  0.49810000  1.0
  H  H122  1  0.23630000  0.08420000  0.44550000  1.0
  H  H123  1  0.32450000  0.12830000  0.44960000  1.0
  H  H124  1  0.24940000  0.19950000  0.54970000  1.0
  H  H125  1  0.42800000  0.13320000  0.50310000  1.0
  H  H126  1  0.15770000  0.39040000  0.84360000  1.0
  H  H127  1  0.20890000  0.27800000  0.77990000  1.0
  H  H128  1  0.23630000  0.36130000  0.91580000  1.0
  H  H129  1  0.32450000  0.32130000  0.87170000  1.0
  H  H130  1  0.24940000  0.35020000  0.80050000  1.0
  H  H131  1  0.42800000  0.36990000  0.86680000  1.0
  H  H132  1  0.84230000  0.15640000  0.60960000  1.0
  H  H133  1  0.79110000  0.22010000  0.72200000  1.0
  H  H134  1  0.76370000  0.08420000  0.63870000  1.0
  H  H135  1  0.67550000  0.12830000  0.67870000  1.0
  H  H136  1  0.75060000  0.19950000  0.64980000  1.0
  H  H137  1  0.57200000  0.13320000  0.63010000  1.0
  H  H138  1  0.84230000  0.39040000  0.54680000  1.0
  H  H139  1  0.79110000  0.27800000  0.49810000  1.0
  H  H140  1  0.76370000  0.36130000  0.44550000  1.0
  H  H141  1  0.67550000  0.32130000  0.44960000  1.0
  H  H142  1  0.75060000  0.35020000  0.54970000  1.0
  H  H143  1  0.57200000  0.36990000  0.50310000  1.0
  H  H144  1  0.84230000  0.45320000  0.84360000  1.0
  H  H145  1  0.79110000  0.50190000  0.77990000  1.0
  H  H146  1  0.76370000  0.55450000  0.91580000  1.0
  H  H147  1  0.67550000  0.55040000  0.87170000  1.0
  H  H148  1  0.75060000  0.45030000  0.80050000  1.0
  H  H149  1  0.57200000  0.49690000  0.86680000  1.0
  H  H150  1  0.84230000  0.84360000  0.39040000  1.0
  H  H151  1  0.79110000  0.77990000  0.27800000  1.0
  H  H152  1  0.76370000  0.91580000  0.36130000  1.0
  H  H153  1  0.67550000  0.87170000  0.32130000  1.0
  H  H154  1  0.75060000  0.80050000  0.35020000  1.0
  H  H155  1  0.57200000  0.86680000  0.36990000  1.0
  H  H156  1  0.84230000  0.60960000  0.45320000  1.0
  H  H157  1  0.79110000  0.72200000  0.50190000  1.0
  H  H158  1  0.76370000  0.63870000  0.55450000  1.0
  H  H159  1  0.67550000  0.67870000  0.55040000  1.0
  H  H160  1  0.75060000  0.64980000  0.45030000  1.0
  H  H161  1  0.57200000  0.63010000  0.49690000  1.0
  H  H162  1  0.84230000  0.54680000  0.15640000  1.0
  H  H163  1  0.79110000  0.49810000  0.22010000  1.0
  H  H164  1  0.76370000  0.44550000  0.08420000  1.0
  H  H165  1  0.67550000  0.44960000  0.12830000  1.0
  H  H166  1  0.75060000  0.54970000  0.19950000  1.0
  H  H167  1  0.57200000  0.50310000  0.13320000  1.0
  C  C168  1  0.64190000  0.49774000  0.69122000  1.0
  C  C169  1  0.56460000  0.49713000  0.68105000  1.0
  C  C170  1  0.80810000  0.47335000  0.62354000  1.0
  C  C171  1  0.74640000  0.50031000  0.73446000  1.0
  C  C172  1  0.81240000  0.50408000  0.62070000  1.0
  C  C173  1  0.86860000  0.50640000  0.59408000  1.0
  C  C174  1  0.76190000  0.53299000  0.64078000  1.0
  C  C175  1  0.66666667  0.49742000  0.72229000  1.0
  C  C176  1  0.70870000  0.53009000  0.66405000  1.0
  C  C177  1  0.70250000  0.49952000  0.66653000  1.0
  C  C178  1  0.75280000  0.47152000  0.64721000  1.0
  C  C179  1  0.53930000  0.49700000  0.64841000  1.0
  C  C180  1  0.64190000  0.19348000  0.50226000  1.0
  C  C181  1  0.56460000  0.18392000  0.50287000  1.0
  C  C182  1  0.80810000  0.15019000  0.52665000  1.0
  C  C183  1  0.74640000  0.23415000  0.49969000  1.0
  C  C184  1  0.81240000  0.11662000  0.49592000  1.0
  C  C185  1  0.86860000  0.08768000  0.49360000  1.0
  C  C186  1  0.76190000  0.10779000  0.46701000  1.0
  C  C187  1  0.66666667  0.22487000  0.50258000  1.0
  C  C188  1  0.70870000  0.13396000  0.46991000  1.0
  C  C189  1  0.70250000  0.16701000  0.50048000  1.0
  C  C190  1  0.75280000  0.17569000  0.52848000  1.0
  C  C191  1  0.53930000  0.15141000  0.50300000  1.0
  C  C192  1  0.64190000  0.30878000  0.80652000  1.0
  C  C193  1  0.56460000  0.31895000  0.81608000  1.0
  C  C194  1  0.80810000  0.37646000  0.84981000  1.0
  C  C195  1  0.74640000  0.26554000  0.76585000  1.0
  C  C196  1  0.81240000  0.37930000  0.88338000  1.0
  C  C197  1  0.86860000  0.40592000  0.91232000  1.0
  C  C198  1  0.76190000  0.35922000  0.89221000  1.0
  C  C199  1  0.66666667  0.27771000  0.77513000  1.0
  C  C200  1  0.70870000  0.33595000  0.86604000  1.0
  C  C201  1  0.70250000  0.33347000  0.83299000  1.0
  C  C202  1  0.75280000  0.35279000  0.82431000  1.0
  C  C203  1  0.53930000  0.35159000  0.84859000  1.0
  C  C204  1  0.64190000  0.50226000  0.30878000  1.0
  C  C205  1  0.56460000  0.50287000  0.31895000  1.0
  C  C206  1  0.80810000  0.52665000  0.37646000  1.0
  C  C207  1  0.74640000  0.49969000  0.26554000  1.0
  C  C208  1  0.81240000  0.49592000  0.37930000  1.0
  C  C209  1  0.86860000  0.49360000  0.40592000  1.0
  C  C210  1  0.76190000  0.46701000  0.35922000  1.0
  C  C211  1  0.66666667  0.50258000  0.27771000  1.0
  C  C212  1  0.70870000  0.46991000  0.33595000  1.0
  C  C213  1  0.70250000  0.50048000  0.33347000  1.0
  C  C214  1  0.75280000  0.52848000  0.35279000  1.0
  C  C215  1  0.53930000  0.50300000  0.35159000  1.0
  C  C216  1  0.64190000  0.80652000  0.49774000  1.0
  C  C217  1  0.56460000  0.81608000  0.49713000  1.0
  C  C218  1  0.80810000  0.84981000  0.47335000  1.0
  C  C219  1  0.74640000  0.76585000  0.50031000  1.0
  C  C220  1  0.81240000  0.88338000  0.50408000  1.0
  C  C221  1  0.86860000  0.91232000  0.50640000  1.0
  C  C222  1  0.76190000  0.89221000  0.53299000  1.0
  C  C223  1  0.66666667  0.77513000  0.49742000  1.0
  C  C224  1  0.70870000  0.86604000  0.53009000  1.0
  C  C225  1  0.70250000  0.83299000  0.49952000  1.0
  C  C226  1  0.75280000  0.82431000  0.47152000  1.0
  C  C227  1  0.53930000  0.84859000  0.49700000  1.0
  C  C228  1  0.64190000  0.69122000  0.19348000  1.0
  C  C229  1  0.56460000  0.68105000  0.18392000  1.0
  C  C230  1  0.80810000  0.62354000  0.15019000  1.0
  C  C231  1  0.74640000  0.73446000  0.23415000  1.0
  C  C232  1  0.81240000  0.62070000  0.11662000  1.0
  C  C233  1  0.86860000  0.59408000  0.08768000  1.0
  C  C234  1  0.76190000  0.64078000  0.10779000  1.0
  C  C235  1  0.66666667  0.72229000  0.22487000  1.0
  C  C236  1  0.70870000  0.66405000  0.13396000  1.0
  C  C237  1  0.70250000  0.66653000  0.16701000  1.0
  C  C238  1  0.75280000  0.64721000  0.17569000  1.0
  C  C239  1  0.53930000  0.64841000  0.15141000  1.0
  C  C240  1  0.35810000  0.80652000  0.30878000  1.0
  C  C241  1  0.43540000  0.81608000  0.31895000  1.0
  C  C242  1  0.19190000  0.84981000  0.37646000  1.0
  C  C243  1  0.25360000  0.76585000  0.26554000  1.0
  C  C244  1  0.18760000  0.88338000  0.37930000  1.0
  C  C245  1  0.13140000  0.91232000  0.40592000  1.0
  C  C246  1  0.23810000  0.89221000  0.35922000  1.0
  C  C247  1  0.33340000  0.77513000  0.27771000  1.0
  C  C248  1  0.29130000  0.86604000  0.33595000  1.0
  C  C249  1  0.29750000  0.83299000  0.33347000  1.0
  C  C250  1  0.24720000  0.82431000  0.35279000  1.0
  C  C251  1  0.46070000  0.84859000  0.35159000  1.0
  C  C252  1  0.35810000  0.69122000  0.49774000  1.0
  C  C253  1  0.43540000  0.68105000  0.49713000  1.0
  C  C254  1  0.19190000  0.62354000  0.47335000  1.0
  C  C255  1  0.25360000  0.73446000  0.50031000  1.0
  C  C256  1  0.18760000  0.62070000  0.50408000  1.0
  C  C257  1  0.13140000  0.59408000  0.50640000  1.0
  C  C258  1  0.23810000  0.64078000  0.53299000  1.0
  C  C259  1  0.33340000  0.72229000  0.49742000  1.0
  C  C260  1  0.29130000  0.66405000  0.53009000  1.0
  C  C261  1  0.29750000  0.66653000  0.49952000  1.0
  C  C262  1  0.24720000  0.64721000  0.47152000  1.0
  C  C263  1  0.46070000  0.64841000  0.49700000  1.0
  C  C264  1  0.35810000  0.50226000  0.19348000  1.0
  C  C265  1  0.43540000  0.50287000  0.18392000  1.0
  C  C266  1  0.19190000  0.52665000  0.15019000  1.0
  C  C267  1  0.25360000  0.49969000  0.23415000  1.0
  C  C268  1  0.18760000  0.49592000  0.11662000  1.0
  C  C269  1  0.13140000  0.49360000  0.08768000  1.0
  C  C270  1  0.23810000  0.46701000  0.10779000  1.0
  C  C271  1  0.33340000  0.50258000  0.22487000  1.0
  C  C272  1  0.29130000  0.46991000  0.13396000  1.0
  C  C273  1  0.29750000  0.50048000  0.16701000  1.0
  C  C274  1  0.24720000  0.52848000  0.17569000  1.0
  C  C275  1  0.46070000  0.50300000  0.15141000  1.0
  C  C276  1  0.35810000  0.19348000  0.69122000  1.0
  C  C277  1  0.43540000  0.18392000  0.68105000  1.0
  C  C278  1  0.19190000  0.15019000  0.62354000  1.0
  C  C279  1  0.25360000  0.23415000  0.73446000  1.0
  C  C280  1  0.18760000  0.11662000  0.62070000  1.0
  C  C281  1  0.13140000  0.08768000  0.59408000  1.0
  C  C282  1  0.23810000  0.10779000  0.64078000  1.0
  C  C283  1  0.33340000  0.22487000  0.72229000  1.0
  C  C284  1  0.29130000  0.13396000  0.66405000  1.0
  C  C285  1  0.29750000  0.16701000  0.66653000  1.0
  C  C286  1  0.24720000  0.17569000  0.64721000  1.0
  C  C287  1  0.46070000  0.15141000  0.64841000  1.0
  C  C288  1  0.35810000  0.30878000  0.50226000  1.0
  C  C289  1  0.43540000  0.31895000  0.50287000  1.0
  C  C290  1  0.19190000  0.37646000  0.52665000  1.0
  C  C291  1  0.25360000  0.26554000  0.49969000  1.0
  C  C292  1  0.18760000  0.37930000  0.49592000  1.0
  C  C293  1  0.13140000  0.40592000  0.49360000  1.0
  C  C294  1  0.23810000  0.35922000  0.46701000  1.0
  C  C295  1  0.33340000  0.27771000  0.50258000  1.0
  C  C296  1  0.29130000  0.33595000  0.46991000  1.0
  C  C297  1  0.29750000  0.33347000  0.50048000  1.0
  C  C298  1  0.24720000  0.35279000  0.52848000  1.0
  C  C299  1  0.46070000  0.35159000  0.50300000  1.0
  C  C300  1  0.35810000  0.49774000  0.80652000  1.0
  C  C301  1  0.43540000  0.49713000  0.81608000  1.0
  C  C302  1  0.19190000  0.47335000  0.84981000  1.0
  C  C303  1  0.25360000  0.50031000  0.76585000  1.0
  C  C304  1  0.18760000  0.50408000  0.88338000  1.0
  C  C305  1  0.13140000  0.50640000  0.91232000  1.0
  C  C306  1  0.23810000  0.53299000  0.89221000  1.0
  C  C307  1  0.33340000  0.49742000  0.77513000  1.0
  C  C308  1  0.29130000  0.53009000  0.86604000  1.0
  C  C309  1  0.29750000  0.49952000  0.83299000  1.0
  C  C310  1  0.24720000  0.47152000  0.82431000  1.0
  C  C311  1  0.46070000  0.49700000  0.84859000  1.0
  C  C312  1  0.35810000  0.50226000  0.30878000  1.0
  C  C313  1  0.43540000  0.50287000  0.31895000  1.0
  C  C314  1  0.19190000  0.52665000  0.37646000  1.0
  C  C315  1  0.25360000  0.49969000  0.26554000  1.0
  C  C316  1  0.18760000  0.49592000  0.37930000  1.0
  C  C317  1  0.13140000  0.49360000  0.40592000  1.0
  C  C318  1  0.23810000  0.46701000  0.35922000  1.0
  C  C319  1  0.33340000  0.50258000  0.27771000  1.0
  C  C320  1  0.29130000  0.46991000  0.33595000  1.0
  C  C321  1  0.29750000  0.50048000  0.33347000  1.0
  C  C322  1  0.24720000  0.52848000  0.35279000  1.0
  C  C323  1  0.46070000  0.50300000  0.35159000  1.0
  C  C324  1  0.35810000  0.80652000  0.49774000  1.0
  C  C325  1  0.43540000  0.81608000  0.49713000  1.0
  C  C326  1  0.19190000  0.84981000  0.47335000  1.0
  C  C327  1  0.25360000  0.76585000  0.50031000  1.0
  C  C328  1  0.18760000  0.88338000  0.50408000  1.0
  C  C329  1  0.13140000  0.91232000  0.50640000  1.0
  C  C330  1  0.23810000  0.89221000  0.53299000  1.0
  C  C331  1  0.33340000  0.77513000  0.49742000  1.0
  C  C332  1  0.29130000  0.86604000  0.53009000  1.0
  C  C333  1  0.29750000  0.83299000  0.49952000  1.0
  C  C334  1  0.24720000  0.82431000  0.47152000  1.0
  C  C335  1  0.46070000  0.84859000  0.49700000  1.0
  C  C336  1  0.35810000  0.69122000  0.19348000  1.0
  C  C337  1  0.43540000  0.68105000  0.18392000  1.0
  C  C338  1  0.19190000  0.62354000  0.15019000  1.0
  C  C339  1  0.25360000  0.73446000  0.23415000  1.0
  C  C340  1  0.18760000  0.62070000  0.11662000  1.0
  C  C341  1  0.13140000  0.59408000  0.08768000  1.0
  C  C342  1  0.23810000  0.64078000  0.10779000  1.0
  C  C343  1  0.33340000  0.72229000  0.22487000  1.0
  C  C344  1  0.29130000  0.66405000  0.13396000  1.0
  C  C345  1  0.29750000  0.66653000  0.16701000  1.0
  C  C346  1  0.24720000  0.64721000  0.17569000  1.0
  C  C347  1  0.46070000  0.64841000  0.15141000  1.0
  C  C348  1  0.35810000  0.49774000  0.69122000  1.0
  C  C349  1  0.43540000  0.49713000  0.68105000  1.0
  C  C350  1  0.19190000  0.47335000  0.62354000  1.0
  C  C351  1  0.25360000  0.50031000  0.73446000  1.0
  C  C352  1  0.18760000  0.50408000  0.62070000  1.0
  C  C353  1  0.13140000  0.50640000  0.59408000  1.0
  C  C354  1  0.23810000  0.53299000  0.64078000  1.0
  C  C355  1  0.33340000  0.49742000  0.72229000  1.0
  C  C356  1  0.29130000  0.53009000  0.66405000  1.0
  C  C357  1  0.29750000  0.49952000  0.66653000  1.0
  C  C358  1  0.24720000  0.47152000  0.64721000  1.0
  C  C359  1  0.46070000  0.49700000  0.64841000  1.0
  C  C360  1  0.35810000  0.19348000  0.50226000  1.0
  C  C361  1  0.43540000  0.18392000  0.50287000  1.0
  C  C362  1  0.19190000  0.15019000  0.52665000  1.0
  C  C363  1  0.25360000  0.23415000  0.49969000  1.0
  C  C364  1  0.18760000  0.11662000  0.49592000  1.0
  C  C365  1  0.13140000  0.08768000  0.49360000  1.0
  C  C366  1  0.23810000  0.10779000  0.46701000  1.0
  C  C367  1  0.33340000  0.22487000  0.50258000  1.0
  C  C368  1  0.29130000  0.13396000  0.46991000  1.0
  C  C369  1  0.29750000  0.16701000  0.50048000  1.0
  C  C370  1  0.24720000  0.17569000  0.52848000  1.0
  C  C371  1  0.46070000  0.15141000  0.50300000  1.0
  C  C372  1  0.35810000  0.30878000  0.80652000  1.0
  C  C373  1  0.43540000  0.31895000  0.81608000  1.0
  C  C374  1  0.19190000  0.37646000  0.84981000  1.0
  C  C375  1  0.25360000  0.26554000  0.76585000  1.0
  C  C376  1  0.18760000  0.37930000  0.88338000  1.0
  C  C377  1  0.13140000  0.40592000  0.91232000  1.0
  C  C378  1  0.23810000  0.35922000  0.89221000  1.0
  C  C379  1  0.33340000  0.27771000  0.77513000  1.0
  C  C380  1  0.29130000  0.33595000  0.86604000  1.0
  C  C381  1  0.29750000  0.33347000  0.83299000  1.0
  C  C382  1  0.24720000  0.35279000  0.82431000  1.0
  C  C383  1  0.46070000  0.35159000  0.84859000  1.0
  C  C384  1  0.64190000  0.19348000  0.69122000  1.0
  C  C385  1  0.56460000  0.18392000  0.68105000  1.0
  C  C386  1  0.80810000  0.15019000  0.62354000  1.0
  C  C387  1  0.74640000  0.23415000  0.73446000  1.0
  C  C388  1  0.81240000  0.11662000  0.62070000  1.0
  C  C389  1  0.86860000  0.08768000  0.59408000  1.0
  C  C390  1  0.76190000  0.10779000  0.64078000  1.0
  C  C391  1  0.66666667  0.22487000  0.72229000  1.0
  C  C392  1  0.70870000  0.13396000  0.66405000  1.0
  C  C393  1  0.70250000  0.16701000  0.66653000  1.0
  C  C394  1  0.75280000  0.17569000  0.64721000  1.0
  C  C395  1  0.53930000  0.15141000  0.64841000  1.0
  C  C396  1  0.64190000  0.30878000  0.50226000  1.0
  C  C397  1  0.56460000  0.31895000  0.50287000  1.0
  C  C398  1  0.80810000  0.37646000  0.52665000  1.0
  C  C399  1  0.74640000  0.26554000  0.49969000  1.0
  C  C400  1  0.81240000  0.37930000  0.49592000  1.0
  C  C401  1  0.86860000  0.40592000  0.49360000  1.0
  C  C402  1  0.76190000  0.35922000  0.46701000  1.0
  C  C403  1  0.66666667  0.27771000  0.50258000  1.0
  C  C404  1  0.70870000  0.33595000  0.46991000  1.0
  C  C405  1  0.70250000  0.33347000  0.50048000  1.0
  C  C406  1  0.75280000  0.35279000  0.52848000  1.0
  C  C407  1  0.53930000  0.35159000  0.50300000  1.0
  C  C408  1  0.64190000  0.49774000  0.80652000  1.0
  C  C409  1  0.56460000  0.49713000  0.81608000  1.0
  C  C410  1  0.80810000  0.47335000  0.84981000  1.0
  C  C411  1  0.74640000  0.50031000  0.76585000  1.0
  C  C412  1  0.81240000  0.50408000  0.88338000  1.0
  C  C413  1  0.86860000  0.50640000  0.91232000  1.0
  C  C414  1  0.76190000  0.53299000  0.89221000  1.0
  C  C415  1  0.66666667  0.49742000  0.77513000  1.0
  C  C416  1  0.70870000  0.53009000  0.86604000  1.0
  C  C417  1  0.70250000  0.49952000  0.83299000  1.0
  C  C418  1  0.75280000  0.47152000  0.82431000  1.0
  C  C419  1  0.53930000  0.49700000  0.84859000  1.0
  C  C420  1  0.64190000  0.80652000  0.30878000  1.0
  C  C421  1  0.56460000  0.81608000  0.31895000  1.0
  C  C422  1  0.80810000  0.84981000  0.37646000  1.0
  C  C423  1  0.74640000  0.76585000  0.26554000  1.0
  C  C424  1  0.81240000  0.88338000  0.37930000  1.0
  C  C425  1  0.86860000  0.91232000  0.40592000  1.0
  C  C426  1  0.76190000  0.89221000  0.35922000  1.0
  C  C427  1  0.66666667  0.77513000  0.27771000  1.0
  C  C428  1  0.70870000  0.86604000  0.33595000  1.0
  C  C429  1  0.70250000  0.83299000  0.33347000  1.0
  C  C430  1  0.75280000  0.82431000  0.35279000  1.0
  C  C431  1  0.53930000  0.84859000  0.35159000  1.0
  C  C432  1  0.64190000  0.69122000  0.49774000  1.0
  C  C433  1  0.56460000  0.68105000  0.49713000  1.0
  C  C434  1  0.80810000  0.62354000  0.47335000  1.0
  C  C435  1  0.74640000  0.73446000  0.50031000  1.0
  C  C436  1  0.81240000  0.62070000  0.50408000  1.0
  C  C437  1  0.86860000  0.59408000  0.50640000  1.0
  C  C438  1  0.76190000  0.64078000  0.53299000  1.0
  C  C439  1  0.66666667  0.72229000  0.49742000  1.0
  C  C440  1  0.70870000  0.66405000  0.53009000  1.0
  C  C441  1  0.70250000  0.66653000  0.49952000  1.0
  C  C442  1  0.75280000  0.64721000  0.47152000  1.0
  C  C443  1  0.53930000  0.64841000  0.49700000  1.0
  C  C444  1  0.64190000  0.50226000  0.19348000  1.0
  C  C445  1  0.56460000  0.50287000  0.18392000  1.0
  C  C446  1  0.80810000  0.52665000  0.15019000  1.0
  C  C447  1  0.74640000  0.49969000  0.23415000  1.0
  C  C448  1  0.81240000  0.49592000  0.11662000  1.0
  C  C449  1  0.86860000  0.49360000  0.08768000  1.0
  C  C450  1  0.76190000  0.46701000  0.10779000  1.0
  C  C451  1  0.66666667  0.50258000  0.22487000  1.0
  C  C452  1  0.70870000  0.46991000  0.13396000  1.0
  C  C453  1  0.70250000  0.50048000  0.16701000  1.0
  C  C454  1  0.75280000  0.52848000  0.17569000  1.0
  C  C455  1  0.53930000  0.50300000  0.15141000  1.0
  N  N456  1  0.61760000  0.49595000  0.74798000  1.0
  N  N457  1  0.61760000  0.25203000  0.50406000  1.0
  N  N458  1  0.61760000  0.25202000  0.74797000  1.0
  N  N459  1  0.61760000  0.50405000  0.25202000  1.0
  N  N460  1  0.61760000  0.74797000  0.49595000  1.0
  N  N461  1  0.61760000  0.74797000  0.25202000  1.0
  N  N462  1  0.38240000  0.74797000  0.25202000  1.0
  N  N463  1  0.38240000  0.74797000  0.49595000  1.0
  N  N464  1  0.38240000  0.50405000  0.25203000  1.0
  N  N465  1  0.38240000  0.25203000  0.74798000  1.0
  N  N466  1  0.38240000  0.25202000  0.50405000  1.0
  N  N467  1  0.38240000  0.49595000  0.74798000  1.0
  N  N468  1  0.50000000  0.49707000  0.70139000  1.0
  N  N469  1  0.50000000  0.20432000  0.50293000  1.0
  N  N470  1  0.50000000  0.29861000  0.79568000  1.0
  N  N471  1  0.50000000  0.50293000  0.29861000  1.0
  N  N472  1  0.50000000  0.79568000  0.49707000  1.0
  N  N473  1  0.50000000  0.70139000  0.20432000  1.0
  N  N474  1  0.50000000  0.79568000  0.29861000  1.0
  N  N475  1  0.50000000  0.70139000  0.49707000  1.0
  N  N476  1  0.50000000  0.50293000  0.20432000  1.0
  N  N477  1  0.50000000  0.20432000  0.70139000  1.0
  N  N478  1  0.50000000  0.29861000  0.50293000  1.0
  N  N479  1  0.50000000  0.49707000  0.79568000  1.0
  Cl  Cl480  1  0.50000000  0.42296000  0.71148000  1.0
  Cl  Cl481  1  0.50000000  0.28852000  0.57704000  1.0
  Cl  Cl482  1  0.50000000  0.28852000  0.71148000  1.0
  Cl  Cl483  1  0.50000000  0.57704000  0.28852000  1.0
  Cl  Cl484  1  0.50000000  0.71148000  0.42296000  1.0
  Cl  Cl485  1  0.50000000  0.71148000  0.28852000  1.0
  O  O486  1  0.92108000  0.48240000  0.58113000  1.0
  O  O487  1  0.85652000  0.53095000  0.58627000  1.0
  O  O488  1  0.92108000  0.09873000  0.51760000  1.0
  O  O489  1  0.85652000  0.05532000  0.46905000  1.0
  O  O490  1  0.92108000  0.41887000  0.90127000  1.0
  O  O491  1  0.85652000  0.41373000  0.94468000  1.0
  O  O492  1  0.92108000  0.51760000  0.41887000  1.0
  O  O493  1  0.85652000  0.46905000  0.41373000  1.0
  O  O494  1  0.92108000  0.90127000  0.48240000  1.0
  O  O495  1  0.85652000  0.94468000  0.53095000  1.0
  O  O496  1  0.92108000  0.58113000  0.09873000  1.0
  O  O497  1  0.85652000  0.58627000  0.05532000  1.0
  O  O498  1  0.07892000  0.90127000  0.41887000  1.0
  O  O499  1  0.14348000  0.94468000  0.41373000  1.0
  O  O500  1  0.07892000  0.58113000  0.48240000  1.0
  O  O501  1  0.14348000  0.58627000  0.53095000  1.0
  O  O502  1  0.07892000  0.51760000  0.09873000  1.0
  O  O503  1  0.14348000  0.46905000  0.05532000  1.0
  O  O504  1  0.07892000  0.09873000  0.58113000  1.0
  O  O505  1  0.14348000  0.05532000  0.58627000  1.0
  O  O506  1  0.07892000  0.41887000  0.51760000  1.0
  O  O507  1  0.14348000  0.41373000  0.46905000  1.0
  O  O508  1  0.07892000  0.48240000  0.90127000  1.0
  O  O509  1  0.14348000  0.53095000  0.94468000  1.0
  O  O510  1  0.07892000  0.51760000  0.41887000  1.0
  O  O511  1  0.14348000  0.46905000  0.41373000  1.0
  O  O512  1  0.07892000  0.90127000  0.48240000  1.0
  O  O513  1  0.14348000  0.94468000  0.53095000  1.0
  O  O514  1  0.07892000  0.58113000  0.09873000  1.0
  O  O515  1  0.14348000  0.58627000  0.05532000  1.0
  O  O516  1  0.07892000  0.48240000  0.58113000  1.0
  O  O517  1  0.14348000  0.53095000  0.58627000  1.0
  O  O518  1  0.07892000  0.09873000  0.51760000  1.0
  O  O519  1  0.14348000  0.05532000  0.46905000  1.0
  O  O520  1  0.07892000  0.41887000  0.90127000  1.0
  O  O521  1  0.14348000  0.41373000  0.94468000  1.0
  O  O522  1  0.92108000  0.09873000  0.58113000  1.0
  O  O523  1  0.85652000  0.05532000  0.58627000  1.0
  O  O524  1  0.92108000  0.41887000  0.51760000  1.0
  O  O525  1  0.85652000  0.41373000  0.46905000  1.0
  O  O526  1  0.92108000  0.48240000  0.90127000  1.0
  O  O527  1  0.85652000  0.53095000  0.94468000  1.0
  O  O528  1  0.92108000  0.90127000  0.41887000  1.0
  O  O529  1  0.85652000  0.94468000  0.41373000  1.0
  O  O530  1  0.92108000  0.58113000  0.48240000  1.0
  O  O531  1  0.85652000  0.58627000  0.53095000  1.0
  O  O532  1  0.92108000  0.51760000  0.09873000  1.0
  O  O533  1  0.85652000  0.46905000  0.05532000  1.0
  O  O534  1  0.89690000  0.48356000  0.51645000  1.0
  O  O535  1  0.89690000  0.03289000  0.51645000  1.0
  O  O536  1  0.89690000  0.48356000  0.96712000  1.0
  O  O537  1  0.89690000  0.51644000  0.48355000  1.0
  O  O538  1  0.89690000  0.96711000  0.48355000  1.0
  O  O539  1  0.89690000  0.51644000  0.03289000  1.0
  O  O540  1  0.10310000  0.96711000  0.48355000  1.0
  O  O541  1  0.10310000  0.51644000  0.48355000  1.0
  O  O542  1  0.10310000  0.51644000  0.03288000  1.0
  O  O543  1  0.10310000  0.03289000  0.51645000  1.0
  O  O544  1  0.10310000  0.48356000  0.51645000  1.0
  O  O545  1  0.10310000  0.48356000  0.96712000  1.0
  O  O546  1  0.00000000  0.52596000  0.55981000  1.0
  O  O547  1  0.00000000  0.03385000  0.47404000  1.0
  O  O548  1  0.00000000  0.44019000  0.96615000  1.0
  O  O549  1  0.00000000  0.47404000  0.44019000  1.0
  O  O550  1  0.00000000  0.96615000  0.52596000  1.0
  O  O551  1  0.00000000  0.55981000  0.03385000  1.0
  O  O552  1  0.00000000  0.96615000  0.44019000  1.0
  O  O553  1  0.00000000  0.55981000  0.52596000  1.0
  O  O554  1  0.00000000  0.47404000  0.03385000  1.0
  O  O555  1  0.00000000  0.03385000  0.55981000  1.0
  O  O556  1  0.00000000  0.44019000  0.47404000  1.0
  O  O557  1  0.00000000  0.52596000  0.96615000  1.0
