# generated using pymatgen
data_Mn2PH2(CO3)4
_symmetry_space_group_name_H-M   'P 1'
_cell_length_a   11.65990000
_cell_length_b   10.93360000
_cell_length_c   11.76690000
_cell_angle_alpha   90.00000000
_cell_angle_beta   90.00000000
_cell_angle_gamma   90.00000000
_symmetry_Int_Tables_number   1
_chemical_formula_structural   Mn2PH2(CO3)4
_chemical_formula_sum   'Mn8 P4 H8 C16 O48'
_cell_volume   1500.09951216
_cell_formula_units_Z   4
loop_
 _symmetry_equiv_pos_site_id
 _symmetry_equiv_pos_as_xyz
  1  'x, y, z'
loop_
 _atom_site_type_symbol
 _atom_site_label
 _atom_site_symmetry_multiplicity
 _atom_site_fract_x
 _atom_site_fract_y
 _atom_site_fract_z
 _atom_site_occupancy
  Mn  Mn0  1  0.28234000  0.27214000  0.31355000  1.0
  Mn  Mn1  1  0.31784000  0.74035000  0.09830000  1.0
  Mn  Mn2  1  0.71766000  0.72786000  0.81355000  1.0
  Mn  Mn3  1  0.68216000  0.25965000  0.59830000  1.0
  Mn  Mn4  1  0.78234000  0.22786000  0.31355000  1.0
  Mn  Mn5  1  0.81784000  0.75965000  0.09830000  1.0
  Mn  Mn6  1  0.21766000  0.77214000  0.81355000  1.0
  Mn  Mn7  1  0.18216000  0.24035000  0.59830000  1.0
  P  P8  1  0.21359000  0.97898000  0.24598000  1.0
  P  P9  1  0.78641000  0.02102000  0.74598000  1.0
  P  P10  1  0.71359000  0.52102000  0.24598000  1.0
  P  P11  1  0.28641000  0.47898000  0.74598000  1.0
  H  H12  1  0.22270000  0.97760000  0.41580000  1.0
  H  H13  1  0.07170000  0.88410000  0.21050000  1.0
  H  H14  1  0.77730000  0.02240000  0.91580000  1.0
  H  H15  1  0.92830000  0.11590000  0.71050000  1.0
  H  H16  1  0.72270000  0.52240000  0.41580000  1.0
  H  H17  1  0.57170000  0.61590000  0.21050000  1.0
  H  H18  1  0.27730000  0.47760000  0.91580000  1.0
  H  H19  1  0.42830000  0.38410000  0.71050000  1.0
  C  C20  1  0.29990000  0.47280000  0.14640000  1.0
  C  C21  1  0.30550000  0.53660000  0.26420000  1.0
  C  C22  1  0.48020000  0.76480000  0.90160000  1.0
  C  C23  1  0.55610000  0.75460000  0.00820000  1.0
  C  C24  1  0.70010000  0.52720000  0.64640000  1.0
  C  C25  1  0.69450000  0.46340000  0.76420000  1.0
  C  C26  1  0.51980000  0.23520000  0.40160000  1.0
  C  C27  1  0.44390000  0.24540000  0.50820000  1.0
  C  C28  1  0.79990000  0.02720000  0.14640000  1.0
  C  C29  1  0.80550000  0.96340000  0.26420000  1.0
  C  C30  1  0.98020000  0.73520000  0.90160000  1.0
  C  C31  1  0.05610000  0.74540000  0.00820000  1.0
  C  C32  1  0.20010000  0.97280000  0.64640000  1.0
  C  C33  1  0.19450000  0.03660000  0.76420000  1.0
  C  C34  1  0.01980000  0.26480000  0.40160000  1.0
  C  C35  1  0.94390000  0.25460000  0.50820000  1.0
  O  O36  1  0.22880000  0.11320000  0.23850000  1.0
  O  O37  1  0.28000000  0.90680000  0.16290000  1.0
  O  O38  1  0.24560000  0.92950000  0.36740000  1.0
  O  O39  1  0.08190000  0.95500000  0.23070000  1.0
  O  O40  1  0.28110000  0.35950000  0.14520000  1.0
  O  O41  1  0.31080000  0.53980000  0.06060000  1.0
  O  O42  1  0.30240000  0.46920000  0.34830000  1.0
  O  O43  1  0.31120000  0.65050000  0.26190000  1.0
  O  O44  1  0.37520000  0.77480000  0.91970000  1.0
  O  O45  1  0.53040000  0.76430000  0.80860000  1.0
  O  O46  1  0.50630000  0.74180000  0.10310000  1.0
  O  O47  1  0.66110000  0.76010000  0.99240000  1.0
  O  O48  1  0.77120000  0.88680000  0.73850000  1.0
  O  O49  1  0.72000000  0.09320000  0.66290000  1.0
  O  O50  1  0.75440000  0.07050000  0.86740000  1.0
  O  O51  1  0.91810000  0.04500000  0.73070000  1.0
  O  O52  1  0.71890000  0.64050000  0.64520000  1.0
  O  O53  1  0.68920000  0.46020000  0.56060000  1.0
  O  O54  1  0.69760000  0.53080000  0.84830000  1.0
  O  O55  1  0.68880000  0.34950000  0.76190000  1.0
  O  O56  1  0.62480000  0.22520000  0.41970000  1.0
  O  O57  1  0.46960000  0.23570000  0.30860000  1.0
  O  O58  1  0.49370000  0.25820000  0.60310000  1.0
  O  O59  1  0.33890000  0.23990000  0.49240000  1.0
  O  O60  1  0.72880000  0.38680000  0.23850000  1.0
  O  O61  1  0.78000000  0.59320000  0.16290000  1.0
  O  O62  1  0.74560000  0.57050000  0.36740000  1.0
  O  O63  1  0.58190000  0.54500000  0.23070000  1.0
  O  O64  1  0.78110000  0.14050000  0.14520000  1.0
  O  O65  1  0.81080000  0.96020000  0.06060000  1.0
  O  O66  1  0.80240000  0.03080000  0.34830000  1.0
  O  O67  1  0.81120000  0.84950000  0.26190000  1.0
  O  O68  1  0.87520000  0.72520000  0.91970000  1.0
  O  O69  1  0.03040000  0.73570000  0.80860000  1.0
  O  O70  1  0.00630000  0.75820000  0.10310000  1.0
  O  O71  1  0.16110000  0.73990000  0.99240000  1.0
  O  O72  1  0.27120000  0.61320000  0.73850000  1.0
  O  O73  1  0.22000000  0.40680000  0.66290000  1.0
  O  O74  1  0.25440000  0.42950000  0.86740000  1.0
  O  O75  1  0.41810000  0.45500000  0.73070000  1.0
  O  O76  1  0.21890000  0.85950000  0.64520000  1.0
  O  O77  1  0.18920000  0.03980000  0.56060000  1.0
  O  O78  1  0.19760000  0.96920000  0.84830000  1.0
  O  O79  1  0.18880000  0.15050000  0.76190000  1.0
  O  O80  1  0.12480000  0.27480000  0.41970000  1.0
  O  O81  1  0.96960000  0.26430000  0.30860000  1.0
  O  O82  1  0.99370000  0.24180000  0.60310000  1.0
  O  O83  1  0.83890000  0.26010000  0.49240000  1.0
