# generated using pymatgen
data_Sm2H13C28O13
_symmetry_space_group_name_H-M   'P 1'
_cell_length_a   14.43880000
_cell_length_b   16.41280000
_cell_length_c   19.33100000
_cell_angle_alpha   90.00000000
_cell_angle_beta   107.60600000
_cell_angle_gamma   90.00000000
_symmetry_Int_Tables_number   1
_chemical_formula_structural   Sm2H13C28O13
_chemical_formula_sum   'Sm8 H52 C112 O52'
_cell_volume   4366.49986689
_cell_formula_units_Z   4
loop_
 _symmetry_equiv_pos_site_id
 _symmetry_equiv_pos_as_xyz
  1  'x, y, z'
loop_
 _atom_site_type_symbol
 _atom_site_label
 _atom_site_symmetry_multiplicity
 _atom_site_fract_x
 _atom_site_fract_y
 _atom_site_fract_z
 _atom_site_occupancy
  Sm  Sm0  1  0.67709000  0.34347000  0.66893000  1.0
  Sm  Sm1  1  0.07834000  0.36427000  0.77097000  1.0
  Sm  Sm2  1  0.82291000  0.84347000  0.83107000  1.0
  Sm  Sm3  1  0.42166000  0.86427000  0.72903000  1.0
  Sm  Sm4  1  0.32291000  0.65653000  0.33107000  1.0
  Sm  Sm5  1  0.92166000  0.63573000  0.22903000  1.0
  Sm  Sm6  1  0.17709000  0.15653000  0.16893000  1.0
  Sm  Sm7  1  0.57834000  0.13573000  0.27097000  1.0
  H  H8  1  0.00930000  0.30350000  0.93750000  1.0
  H  H9  1  0.83970000  0.22020000  0.05110000  1.0
  H  H10  1  0.72000000  0.33230000  0.85870000  1.0
  H  H11  1  0.53770000  0.19420000  0.07660000  1.0
  H  H12  1  0.25390000  0.25670000  0.01450000  1.0
  H  H13  1  0.42180000  0.30730000  0.88670000  1.0
  H  H14  1  0.55710000  0.42180000  0.87850000  1.0
  H  H15  1  0.44170000  0.63720000  0.89440000  1.0
  H  H16  1  0.51280000  0.58400000  0.71360000  1.0
  H  H17  1  0.08830000  0.53760000  0.91050000  1.0
  H  H18  1  0.10750000  0.60720000  0.86100000  1.0
  H  H19  1  0.19470000  0.55730000  0.91120000  1.0
  H  H20  1  0.13560000  0.50380000  0.78220000  1.0
  H  H21  1  0.49070000  0.80350000  0.56250000  1.0
  H  H22  1  0.66030000  0.72020000  0.44890000  1.0
  H  H23  1  0.78000000  0.83230000  0.64130000  1.0
  H  H24  1  0.96230000  0.69420000  0.42340000  1.0
  H  H25  1  0.24610000  0.75670000  0.48550000  1.0
  H  H26  1  0.07820000  0.80730000  0.61330000  1.0
  H  H27  1  0.94290000  0.92180000  0.62150000  1.0
  H  H28  1  0.05830000  0.13720000  0.60560000  1.0
  H  H29  1  0.98720000  0.08400000  0.78640000  1.0
  H  H30  1  0.41170000  0.03760000  0.58950000  1.0
  H  H31  1  0.39250000  0.10720000  0.63900000  1.0
  H  H32  1  0.30530000  0.05730000  0.58880000  1.0
  H  H33  1  0.36440000  0.00380000  0.71780000  1.0
  H  H34  1  0.99070000  0.69650000  0.06250000  1.0
  H  H35  1  0.16030000  0.77980000  0.94890000  1.0
  H  H36  1  0.28000000  0.66770000  0.14130000  1.0
  H  H37  1  0.46230000  0.80580000  0.92340000  1.0
  H  H38  1  0.74610000  0.74330000  0.98550000  1.0
  H  H39  1  0.57820000  0.69270000  0.11330000  1.0
  H  H40  1  0.44290000  0.57820000  0.12150000  1.0
  H  H41  1  0.55830000  0.36280000  0.10560000  1.0
  H  H42  1  0.48720000  0.41600000  0.28640000  1.0
  H  H43  1  0.91170000  0.46240000  0.08950000  1.0
  H  H44  1  0.89250000  0.39280000  0.13900000  1.0
  H  H45  1  0.80530000  0.44270000  0.08880000  1.0
  H  H46  1  0.86440000  0.49620000  0.21780000  1.0
  H  H47  1  0.50930000  0.19650000  0.43750000  1.0
  H  H48  1  0.33970000  0.27980000  0.55110000  1.0
  H  H49  1  0.22000000  0.16770000  0.35870000  1.0
  H  H50  1  0.03770000  0.30580000  0.57660000  1.0
  H  H51  1  0.75390000  0.24330000  0.51450000  1.0
  H  H52  1  0.92180000  0.19270000  0.38670000  1.0
  H  H53  1  0.05710000  0.07820000  0.37850000  1.0
  H  H54  1  0.94170000  0.86280000  0.39440000  1.0
  H  H55  1  0.01280000  0.91600000  0.21360000  1.0
  H  H56  1  0.58830000  0.96240000  0.41050000  1.0
  H  H57  1  0.60750000  0.89280000  0.36100000  1.0
  H  H58  1  0.69470000  0.94270000  0.41120000  1.0
  H  H59  1  0.63560000  0.99620000  0.28220000  1.0
  C  C60  1  0.86730000  0.32520000  0.88720000  1.0
  C  C61  1  0.94770000  0.29680000  0.94250000  1.0
  C  C62  1  0.93940000  0.25930000  0.00410000  1.0
  C  C63  1  0.84730000  0.24700000  0.01070000  1.0
  C  C64  1  0.76590000  0.27530000  0.95620000  1.0
  C  C65  1  0.77480000  0.31410000  0.89450000  1.0
  C  C66  1  0.87420000  0.37290000  0.82380000  1.0
  C  C67  1  0.02190000  0.22270000  0.05970000  1.0
  C  C68  1  0.66930000  0.26230000  0.96280000  1.0
  C  C69  1  0.59150000  0.25170000  0.96970000  1.0
  C  C70  1  0.49670000  0.25120000  0.97820000  1.0
  C  C71  1  0.48480000  0.21730000  0.04200000  1.0
  C  C72  1  0.39480000  0.21820000  0.05320000  1.0
  C  C73  1  0.31330000  0.25440000  0.00510000  1.0
  C  C74  1  0.32680000  0.28800000  0.93990000  1.0
  C  C75  1  0.41540000  0.28520000  0.92930000  1.0
  C  C76  1  0.38280000  0.18730000  0.12210000  1.0
  C  C77  1  0.24570000  0.32200000  0.88520000  1.0
  C  C78  1  0.54340000  0.49270000  0.78900000  1.0
  C  C79  1  0.53680000  0.47300000  0.85930000  1.0
  C  C80  1  0.50210000  0.52590000  0.89900000  1.0
  C  C81  1  0.46820000  0.60080000  0.86870000  1.0
  C  C82  1  0.47360000  0.62240000  0.79840000  1.0
  C  C83  1  0.50990000  0.56970000  0.75940000  1.0
  C  C84  1  0.58340000  0.43720000  0.74330000  1.0
  C  C85  1  0.44580000  0.70170000  0.76550000  1.0
  C  C86  1  0.50040000  0.50900000  0.97050000  1.0
  C  C87  1  0.12820000  0.55450000  0.88140000  1.0
  C  C88  1  0.63270000  0.82520000  0.61280000  1.0
  C  C89  1  0.55230000  0.79680000  0.55750000  1.0
  C  C90  1  0.56060000  0.75930000  0.49590000  1.0
  C  C91  1  0.65270000  0.74700000  0.48930000  1.0
  C  C92  1  0.73410000  0.77530000  0.54380000  1.0
  C  C93  1  0.72520000  0.81410000  0.60550000  1.0
  C  C94  1  0.62580000  0.87290000  0.67620000  1.0
  C  C95  1  0.47810000  0.72270000  0.44030000  1.0
  C  C96  1  0.83070000  0.76230000  0.53720000  1.0
  C  C97  1  0.90850000  0.75170000  0.53030000  1.0
  C  C98  1  0.00330000  0.75120000  0.52180000  1.0
  C  C99  1  0.01520000  0.71730000  0.45800000  1.0
  C  C100  1  0.10520000  0.71820000  0.44680000  1.0
  C  C101  1  0.18670000  0.75440000  0.49490000  1.0
  C  C102  1  0.17320000  0.78800000  0.56010000  1.0
  C  C103  1  0.08460000  0.78520000  0.57070000  1.0
  C  C104  1  0.11720000  0.68730000  0.37790000  1.0
  C  C105  1  0.25430000  0.82200000  0.61480000  1.0
  C  C106  1  0.95660000  0.99270000  0.71100000  1.0
  C  C107  1  0.96320000  0.97300000  0.64070000  1.0
  C  C108  1  0.99790000  0.02590000  0.60100000  1.0
  C  C109  1  0.03180000  0.10080000  0.63130000  1.0
  C  C110  1  0.02640000  0.12240000  0.70160000  1.0
  C  C111  1  0.99010000  0.06970000  0.74060000  1.0
  C  C112  1  0.91660000  0.93720000  0.75670000  1.0
  C  C113  1  0.05420000  0.20170000  0.73450000  1.0
  C  C114  1  0.99960000  0.00900000  0.52950000  1.0
  C  C115  1  0.37180000  0.05450000  0.61860000  1.0
  C  C116  1  0.13270000  0.67480000  0.11280000  1.0
  C  C117  1  0.05230000  0.70320000  0.05750000  1.0
  C  C118  1  0.06060000  0.74070000  0.99590000  1.0
  C  C119  1  0.15270000  0.75300000  0.98930000  1.0
  C  C120  1  0.23410000  0.72470000  0.04380000  1.0
  C  C121  1  0.22520000  0.68590000  0.10550000  1.0
  C  C122  1  0.12580000  0.62710000  0.17620000  1.0
  C  C123  1  0.97810000  0.77730000  0.94030000  1.0
  C  C124  1  0.33070000  0.73770000  0.03720000  1.0
  C  C125  1  0.40850000  0.74830000  0.03030000  1.0
  C  C126  1  0.50330000  0.74880000  0.02180000  1.0
  C  C127  1  0.51520000  0.78270000  0.95800000  1.0
  C  C128  1  0.60520000  0.78180000  0.94680000  1.0
  C  C129  1  0.68670000  0.74560000  0.99490000  1.0
  C  C130  1  0.67320000  0.71200000  0.06010000  1.0
  C  C131  1  0.58460000  0.71480000  0.07070000  1.0
  C  C132  1  0.61720000  0.81270000  0.87790000  1.0
  C  C133  1  0.75430000  0.67800000  0.11480000  1.0
  C  C134  1  0.45660000  0.50730000  0.21100000  1.0
  C  C135  1  0.46320000  0.52700000  0.14070000  1.0
  C  C136  1  0.49790000  0.47410000  0.10100000  1.0
  C  C137  1  0.53180000  0.39920000  0.13130000  1.0
  C  C138  1  0.52640000  0.37760000  0.20160000  1.0
  C  C139  1  0.49010000  0.43030000  0.24060000  1.0
  C  C140  1  0.41660000  0.56280000  0.25670000  1.0
  C  C141  1  0.55420000  0.29830000  0.23450000  1.0
  C  C142  1  0.49960000  0.49100000  0.02950000  1.0
  C  C143  1  0.87180000  0.44550000  0.11860000  1.0
  C  C144  1  0.36730000  0.17480000  0.38720000  1.0
  C  C145  1  0.44770000  0.20320000  0.44250000  1.0
  C  C146  1  0.43940000  0.24070000  0.50410000  1.0
  C  C147  1  0.34730000  0.25300000  0.51070000  1.0
  C  C148  1  0.26590000  0.22470000  0.45620000  1.0
  C  C149  1  0.27480000  0.18590000  0.39450000  1.0
  C  C150  1  0.37420000  0.12710000  0.32380000  1.0
  C  C151  1  0.52190000  0.27730000  0.55970000  1.0
  C  C152  1  0.16930000  0.23770000  0.46280000  1.0
  C  C153  1  0.09150000  0.24830000  0.46970000  1.0
  C  C154  1  0.99670000  0.24880000  0.47820000  1.0
  C  C155  1  0.98480000  0.28270000  0.54200000  1.0
  C  C156  1  0.89480000  0.28180000  0.55320000  1.0
  C  C157  1  0.81330000  0.24560000  0.50510000  1.0
  C  C158  1  0.82680000  0.21200000  0.43990000  1.0
  C  C159  1  0.91540000  0.21480000  0.42930000  1.0
  C  C160  1  0.88280000  0.31270000  0.62210000  1.0
  C  C161  1  0.74570000  0.17800000  0.38520000  1.0
  C  C162  1  0.04340000  0.00730000  0.28900000  1.0
  C  C163  1  0.03680000  0.02700000  0.35930000  1.0
  C  C164  1  0.00210000  0.97410000  0.39900000  1.0
  C  C165  1  0.96820000  0.89920000  0.36870000  1.0
  C  C166  1  0.97360000  0.87760000  0.29840000  1.0
  C  C167  1  0.00990000  0.93030000  0.25940000  1.0
  C  C168  1  0.08340000  0.06280000  0.24330000  1.0
  C  C169  1  0.94580000  0.79830000  0.26550000  1.0
  C  C170  1  0.00040000  0.99100000  0.47050000  1.0
  C  C171  1  0.62820000  0.94550000  0.38140000  1.0
  O  O172  1  0.79990000  0.38610000  0.77280000  1.0
  O  O173  1  0.95720000  0.38840000  0.82170000  1.0
  O  O174  1  0.10670000  0.24280000  0.06190000  1.0
  O  O175  1  0.00740000  0.18070000  0.10650000  1.0
  O  O176  1  0.44820000  0.13810000  0.16170000  1.0
  O  O177  1  0.30790000  0.20590000  0.14100000  1.0
  O  O178  1  0.16670000  0.32480000  0.89830000  1.0
  O  O179  1  0.24590000  0.34760000  0.82650000  1.0
  O  O180  1  0.59200000  0.36480000  0.76210000  1.0
  O  O181  1  0.61560000  0.46630000  0.69580000  1.0
  O  O182  1  0.47680000  0.72940000  0.72050000  1.0
  O  O183  1  0.38470000  0.74480000  0.79110000  1.0
  O  O184  1  0.11870000  0.49240000  0.81960000  1.0
  O  O185  1  0.70010000  0.88610000  0.72720000  1.0
  O  O186  1  0.54280000  0.88840000  0.67830000  1.0
  O  O187  1  0.39330000  0.74280000  0.43810000  1.0
  O  O188  1  0.49260000  0.68070000  0.39350000  1.0
  O  O189  1  0.05180000  0.63810000  0.33830000  1.0
  O  O190  1  0.19210000  0.70590000  0.35900000  1.0
  O  O191  1  0.33333333  0.82480000  0.60170000  1.0
  O  O192  1  0.25410000  0.84760000  0.67350000  1.0
  O  O193  1  0.90800000  0.86480000  0.73790000  1.0
  O  O194  1  0.88440000  0.96630000  0.80420000  1.0
  O  O195  1  0.02320000  0.22940000  0.77950000  1.0
  O  O196  1  0.11530000  0.24480000  0.70890000  1.0
  O  O197  1  0.38130000  0.99240000  0.68040000  1.0
  O  O198  1  0.20010000  0.61390000  0.22720000  1.0
  O  O199  1  0.04280000  0.61160000  0.17830000  1.0
  O  O200  1  0.89330000  0.75720000  0.93810000  1.0
  O  O201  1  0.99260000  0.81930000  0.89350000  1.0
  O  O202  1  0.55180000  0.86190000  0.83830000  1.0
  O  O203  1  0.69210000  0.79410000  0.85900000  1.0
  O  O204  1  0.83330000  0.67520000  0.10170000  1.0
  O  O205  1  0.75410000  0.65240000  0.17350000  1.0
  O  O206  1  0.40800000  0.63520000  0.23790000  1.0
  O  O207  1  0.38440000  0.53370000  0.30420000  1.0
  O  O208  1  0.52320000  0.27060000  0.27950000  1.0
  O  O209  1  0.61530000  0.25520000  0.20890000  1.0
  O  O210  1  0.88130000  0.50760000  0.18040000  1.0
  O  O211  1  0.29990000  0.11390000  0.27280000  1.0
  O  O212  1  0.45720000  0.11160000  0.32170000  1.0
  O  O213  1  0.60670000  0.25720000  0.56190000  1.0
  O  O214  1  0.50740000  0.31930000  0.60650000  1.0
  O  O215  1  0.94820000  0.36190000  0.66170000  1.0
  O  O216  1  0.80790000  0.29410000  0.64100000  1.0
  O  O217  1  0.66666667  0.17520000  0.39830000  1.0
  O  O218  1  0.74590000  0.15240000  0.32650000  1.0
  O  O219  1  0.09200000  0.13520000  0.26210000  1.0
  O  O220  1  0.11560000  0.03370000  0.19580000  1.0
  O  O221  1  0.97680000  0.77060000  0.22050000  1.0
  O  O222  1  0.88470000  0.75520000  0.29110000  1.0
  O  O223  1  0.61870000  0.00760000  0.31960000  1.0
