# generated using pymatgen
data_Zr3H8C28(N2O11)4
_symmetry_space_group_name_H-M   'P 1'
_cell_length_a   23.02400000
_cell_length_b   23.02400000
_cell_length_c   18.64840000
_cell_angle_alpha   90.00000000
_cell_angle_beta   90.00000000
_cell_angle_gamma   90.00000000
_symmetry_Int_Tables_number   1
_chemical_formula_structural   Zr3H8C28(N2O11)4
_chemical_formula_sum   'Zr12 H32 C112 N32 O176'
_cell_volume   9885.60217508
_cell_formula_units_Z   4
loop_
 _symmetry_equiv_pos_site_id
 _symmetry_equiv_pos_as_xyz
  1  'x, y, z'
loop_
 _atom_site_type_symbol
 _atom_site_label
 _atom_site_symmetry_multiplicity
 _atom_site_fract_x
 _atom_site_fract_y
 _atom_site_fract_z
 _atom_site_occupancy
  Zr  Zr0  1  0.50000000  0.10670000  0.00000000  1.0
  Zr  Zr1  1  0.50000000  0.89330000  0.00000000  1.0
  Zr  Zr2  1  0.89330000  0.50000000  0.50000000  1.0
  Zr  Zr3  1  0.10670000  0.50000000  0.50000000  1.0
  Zr  Zr4  1  0.42387000  0.00000000  0.09248000  1.0
  Zr  Zr5  1  0.57613000  0.00000000  0.09248000  1.0
  Zr  Zr6  1  0.00000000  0.42387000  0.59248000  1.0
  Zr  Zr7  1  0.00000000  0.57613000  0.59248000  1.0
  Zr  Zr8  1  0.57613000  0.00000000  0.90752000  1.0
  Zr  Zr9  1  0.42387000  0.00000000  0.90752000  1.0
  Zr  Zr10  1  0.00000000  0.42387000  0.40752000  1.0
  Zr  Zr11  1  0.00000000  0.57613000  0.40752000  1.0
  H  H12  1  0.39350000  0.25430000  0.09460000  1.0
  H  H13  1  0.34170000  0.12610000  0.22910000  1.0
  H  H14  1  0.60650000  0.74570000  0.09460000  1.0
  H  H15  1  0.65830000  0.87390000  0.22910000  1.0
  H  H16  1  0.74570000  0.39350000  0.59460000  1.0
  H  H17  1  0.87390000  0.34170000  0.72910000  1.0
  H  H18  1  0.25430000  0.60650000  0.59460000  1.0
  H  H19  1  0.12610000  0.65830000  0.72910000  1.0
  H  H20  1  0.60650000  0.25430000  0.90540000  1.0
  H  H21  1  0.65830000  0.12610000  0.77090000  1.0
  H  H22  1  0.39350000  0.74570000  0.90540000  1.0
  H  H23  1  0.34170000  0.87390000  0.77090000  1.0
  H  H24  1  0.25430000  0.39350000  0.40540000  1.0
  H  H25  1  0.12610000  0.34170000  0.27090000  1.0
  H  H26  1  0.74570000  0.60650000  0.40540000  1.0
  H  H27  1  0.87390000  0.65830000  0.27090000  1.0
  H  H28  1  0.60650000  0.74570000  0.90540000  1.0
  H  H29  1  0.65830000  0.87390000  0.77090000  1.0
  H  H30  1  0.39350000  0.25430000  0.90540000  1.0
  H  H31  1  0.34170000  0.12610000  0.77090000  1.0
  H  H32  1  0.25430000  0.60650000  0.40540000  1.0
  H  H33  1  0.12610000  0.65830000  0.27090000  1.0
  H  H34  1  0.74570000  0.39350000  0.40540000  1.0
  H  H35  1  0.87390000  0.34170000  0.27090000  1.0
  H  H36  1  0.39350000  0.74570000  0.09460000  1.0
  H  H37  1  0.34170000  0.87390000  0.22910000  1.0
  H  H38  1  0.60650000  0.25430000  0.09460000  1.0
  H  H39  1  0.65830000  0.12610000  0.22910000  1.0
  H  H40  1  0.74570000  0.60650000  0.59460000  1.0
  H  H41  1  0.87390000  0.65830000  0.72910000  1.0
  H  H42  1  0.25430000  0.39350000  0.59460000  1.0
  H  H43  1  0.12610000  0.34170000  0.72910000  1.0
  C  C44  1  0.40480000  0.13930000  0.11300000  1.0
  C  C45  1  0.37290000  0.18390000  0.15580000  1.0
  C  C46  1  0.37160000  0.24180000  0.13490000  1.0
  C  C47  1  0.34090000  0.16568000  0.21480000  1.0
  C  C48  1  0.33840000  0.28158000  0.17320000  1.0
  C  C49  1  0.30760000  0.20540000  0.25310000  1.0
  C  C50  1  0.30630000  0.26340000  0.23220000  1.0
  C  C51  1  0.59520000  0.86070000  0.11300000  1.0
  C  C52  1  0.62710000  0.81610000  0.15580000  1.0
  C  C53  1  0.62840000  0.75820000  0.13490000  1.0
  C  C54  1  0.65910000  0.83432000  0.21480000  1.0
  C  C55  1  0.66160000  0.71842000  0.17320000  1.0
  C  C56  1  0.69240000  0.79460000  0.25310000  1.0
  C  C57  1  0.69370000  0.73660000  0.23220000  1.0
  C  C58  1  0.86070000  0.40480000  0.61300000  1.0
  C  C59  1  0.81610000  0.37290000  0.65580000  1.0
  C  C60  1  0.75820000  0.37160000  0.63490000  1.0
  C  C61  1  0.83432000  0.34090000  0.71480000  1.0
  C  C62  1  0.71842000  0.33840000  0.67320000  1.0
  C  C63  1  0.79460000  0.30760000  0.75310000  1.0
  C  C64  1  0.73660000  0.30630000  0.73220000  1.0
  C  C65  1  0.13930000  0.59520000  0.61300000  1.0
  C  C66  1  0.18390000  0.62710000  0.65580000  1.0
  C  C67  1  0.24180000  0.62840000  0.63490000  1.0
  C  C68  1  0.16568000  0.65910000  0.71480000  1.0
  C  C69  1  0.28158000  0.66160000  0.67320000  1.0
  C  C70  1  0.20540000  0.69240000  0.75310000  1.0
  C  C71  1  0.26340000  0.69370000  0.73220000  1.0
  C  C72  1  0.59520000  0.13930000  0.88700000  1.0
  C  C73  1  0.62710000  0.18390000  0.84420000  1.0
  C  C74  1  0.62840000  0.24180000  0.86510000  1.0
  C  C75  1  0.65910000  0.16568000  0.78520000  1.0
  C  C76  1  0.66160000  0.28158000  0.82680000  1.0
  C  C77  1  0.69240000  0.20540000  0.74690000  1.0
  C  C78  1  0.69370000  0.26340000  0.76780000  1.0
  C  C79  1  0.40480000  0.86070000  0.88700000  1.0
  C  C80  1  0.37290000  0.81610000  0.84420000  1.0
  C  C81  1  0.37160000  0.75820000  0.86510000  1.0
  C  C82  1  0.34090000  0.83432000  0.78520000  1.0
  C  C83  1  0.33840000  0.71842000  0.82680000  1.0
  C  C84  1  0.30760000  0.79460000  0.74690000  1.0
  C  C85  1  0.30630000  0.73660000  0.76780000  1.0
  C  C86  1  0.13930000  0.40480000  0.38700000  1.0
  C  C87  1  0.18390000  0.37290000  0.34420000  1.0
  C  C88  1  0.24180000  0.37160000  0.36510000  1.0
  C  C89  1  0.16568000  0.34090000  0.28520000  1.0
  C  C90  1  0.28158000  0.33840000  0.32680000  1.0
  C  C91  1  0.20540000  0.30760000  0.24690000  1.0
  C  C92  1  0.26340000  0.30630000  0.26780000  1.0
  C  C93  1  0.86070000  0.59520000  0.38700000  1.0
  C  C94  1  0.81610000  0.62710000  0.34420000  1.0
  C  C95  1  0.75820000  0.62840000  0.36510000  1.0
  C  C96  1  0.83432000  0.65910000  0.28520000  1.0
  C  C97  1  0.71842000  0.66160000  0.32680000  1.0
  C  C98  1  0.79460000  0.69240000  0.24690000  1.0
  C  C99  1  0.73660000  0.69370000  0.26780000  1.0
  C  C100  1  0.59520000  0.86070000  0.88700000  1.0
  C  C101  1  0.62710000  0.81610000  0.84420000  1.0
  C  C102  1  0.62840000  0.75820000  0.86510000  1.0
  C  C103  1  0.65910000  0.83432000  0.78520000  1.0
  C  C104  1  0.66160000  0.71842000  0.82680000  1.0
  C  C105  1  0.69240000  0.79460000  0.74690000  1.0
  C  C106  1  0.69370000  0.73660000  0.76780000  1.0
  C  C107  1  0.40480000  0.13930000  0.88700000  1.0
  C  C108  1  0.37290000  0.18390000  0.84420000  1.0
  C  C109  1  0.37160000  0.24180000  0.86510000  1.0
  C  C110  1  0.34090000  0.16568000  0.78520000  1.0
  C  C111  1  0.33840000  0.28158000  0.82680000  1.0
  C  C112  1  0.30760000  0.20540000  0.74690000  1.0
  C  C113  1  0.30630000  0.26340000  0.76780000  1.0
  C  C114  1  0.13930000  0.59520000  0.38700000  1.0
  C  C115  1  0.18390000  0.62710000  0.34420000  1.0
  C  C116  1  0.24180000  0.62840000  0.36510000  1.0
  C  C117  1  0.16568000  0.65910000  0.28520000  1.0
  C  C118  1  0.28158000  0.66160000  0.32680000  1.0
  C  C119  1  0.20540000  0.69240000  0.24690000  1.0
  C  C120  1  0.26340000  0.69370000  0.26780000  1.0
  C  C121  1  0.86070000  0.40480000  0.38700000  1.0
  C  C122  1  0.81610000  0.37290000  0.34420000  1.0
  C  C123  1  0.75820000  0.37160000  0.36510000  1.0
  C  C124  1  0.83432000  0.34090000  0.28520000  1.0
  C  C125  1  0.71842000  0.33840000  0.32680000  1.0
  C  C126  1  0.79460000  0.30760000  0.24690000  1.0
  C  C127  1  0.73660000  0.30630000  0.26780000  1.0
  C  C128  1  0.40480000  0.86070000  0.11300000  1.0
  C  C129  1  0.37290000  0.81610000  0.15580000  1.0
  C  C130  1  0.37160000  0.75820000  0.13490000  1.0
  C  C131  1  0.34090000  0.83432000  0.21480000  1.0
  C  C132  1  0.33840000  0.71842000  0.17320000  1.0
  C  C133  1  0.30760000  0.79460000  0.25310000  1.0
  C  C134  1  0.30630000  0.73660000  0.23220000  1.0
  C  C135  1  0.59520000  0.13930000  0.11300000  1.0
  C  C136  1  0.62710000  0.18390000  0.15580000  1.0
  C  C137  1  0.62840000  0.24180000  0.13490000  1.0
  C  C138  1  0.65910000  0.16568000  0.21480000  1.0
  C  C139  1  0.66160000  0.28158000  0.17320000  1.0
  C  C140  1  0.69240000  0.20540000  0.25310000  1.0
  C  C141  1  0.69370000  0.26340000  0.23220000  1.0
  C  C142  1  0.86070000  0.59520000  0.61300000  1.0
  C  C143  1  0.81610000  0.62710000  0.65580000  1.0
  C  C144  1  0.75820000  0.62840000  0.63490000  1.0
  C  C145  1  0.83432000  0.65910000  0.71480000  1.0
  C  C146  1  0.71842000  0.66160000  0.67320000  1.0
  C  C147  1  0.79460000  0.69240000  0.75310000  1.0
  C  C148  1  0.73660000  0.69370000  0.73220000  1.0
  C  C149  1  0.13930000  0.40480000  0.61300000  1.0
  C  C150  1  0.18390000  0.37290000  0.65580000  1.0
  C  C151  1  0.24180000  0.37160000  0.63490000  1.0
  C  C152  1  0.16568000  0.34090000  0.71480000  1.0
  C  C153  1  0.28158000  0.33840000  0.67320000  1.0
  C  C154  1  0.20540000  0.30760000  0.75310000  1.0
  C  C155  1  0.26340000  0.30630000  0.73220000  1.0
  N  N156  1  0.34140000  0.34110000  0.14470000  1.0
  N  N157  1  0.27590000  0.17980000  0.31460000  1.0
  N  N158  1  0.65860000  0.65890000  0.14470000  1.0
  N  N159  1  0.72410000  0.82020000  0.31460000  1.0
  N  N160  1  0.65890000  0.34140000  0.64470000  1.0
  N  N161  1  0.82020000  0.27590000  0.81460000  1.0
  N  N162  1  0.34110000  0.65860000  0.64470000  1.0
  N  N163  1  0.17980000  0.72410000  0.81460000  1.0
  N  N164  1  0.65860000  0.34110000  0.85530000  1.0
  N  N165  1  0.72410000  0.17980000  0.68540000  1.0
  N  N166  1  0.34140000  0.65890000  0.85530000  1.0
  N  N167  1  0.27590000  0.82020000  0.68540000  1.0
  N  N168  1  0.34110000  0.34140000  0.35530000  1.0
  N  N169  1  0.17980000  0.27590000  0.18540000  1.0
  N  N170  1  0.65890000  0.65860000  0.35530000  1.0
  N  N171  1  0.82020000  0.72410000  0.18540000  1.0
  N  N172  1  0.65860000  0.65890000  0.85530000  1.0
  N  N173  1  0.72410000  0.82020000  0.68540000  1.0
  N  N174  1  0.34140000  0.34110000  0.85530000  1.0
  N  N175  1  0.27590000  0.17980000  0.68540000  1.0
  N  N176  1  0.34110000  0.65860000  0.35530000  1.0
  N  N177  1  0.17980000  0.72410000  0.18540000  1.0
  N  N178  1  0.65890000  0.34140000  0.35530000  1.0
  N  N179  1  0.82020000  0.27590000  0.18540000  1.0
  N  N180  1  0.34140000  0.65890000  0.14470000  1.0
  N  N181  1  0.27590000  0.82020000  0.31460000  1.0
  N  N182  1  0.65860000  0.34110000  0.14470000  1.0
  N  N183  1  0.72410000  0.17980000  0.31460000  1.0
  N  N184  1  0.65890000  0.65860000  0.64470000  1.0
  N  N185  1  0.82020000  0.72410000  0.81460000  1.0
  N  N186  1  0.34110000  0.34140000  0.64470000  1.0
  N  N187  1  0.17980000  0.27590000  0.81460000  1.0
  O  O188  1  0.44250000  0.15730000  0.06890000  1.0
  O  O189  1  0.39420000  0.08770000  0.12940000  1.0
  O  O190  1  0.38750000  0.36040000  0.12330000  1.0
  O  O191  1  0.29410000  0.36760000  0.14500000  1.0
  O  O192  1  0.30080000  0.14450000  0.35240000  1.0
  O  O193  1  0.22510000  0.19670000  0.32300000  1.0
  O  O194  1  0.33900000  0.34950000  0.08020000  1.0
  O  O195  1  0.34680000  0.38020000  0.19060000  1.0
  O  O196  1  0.27150000  0.20830000  0.36990000  1.0
  O  O197  1  0.25540000  0.13080000  0.30720000  1.0
  O  O198  1  0.55750000  0.84270000  0.06890000  1.0
  O  O199  1  0.60580000  0.91230000  0.12940000  1.0
  O  O200  1  0.61250000  0.63960000  0.12330000  1.0
  O  O201  1  0.70590000  0.63240000  0.14500000  1.0
  O  O202  1  0.69920000  0.85550000  0.35240000  1.0
  O  O203  1  0.77490000  0.80330000  0.32300000  1.0
  O  O204  1  0.66100000  0.65050000  0.08020000  1.0
  O  O205  1  0.65320000  0.61980000  0.19060000  1.0
  O  O206  1  0.72850000  0.79170000  0.36990000  1.0
  O  O207  1  0.74460000  0.86920000  0.30720000  1.0
  O  O208  1  0.84270000  0.44250000  0.56890000  1.0
  O  O209  1  0.91230000  0.39420000  0.62940000  1.0
  O  O210  1  0.63960000  0.38750000  0.62330000  1.0
  O  O211  1  0.63240000  0.29410000  0.64500000  1.0
  O  O212  1  0.85550000  0.30080000  0.85240000  1.0
  O  O213  1  0.80330000  0.22510000  0.82300000  1.0
  O  O214  1  0.65050000  0.33900000  0.58020000  1.0
  O  O215  1  0.61980000  0.34680000  0.69060000  1.0
  O  O216  1  0.79170000  0.27150000  0.86990000  1.0
  O  O217  1  0.86920000  0.25540000  0.80720000  1.0
  O  O218  1  0.15730000  0.55750000  0.56890000  1.0
  O  O219  1  0.08770000  0.60580000  0.62940000  1.0
  O  O220  1  0.36040000  0.61250000  0.62330000  1.0
  O  O221  1  0.36760000  0.70590000  0.64500000  1.0
  O  O222  1  0.14450000  0.69920000  0.85240000  1.0
  O  O223  1  0.19670000  0.77490000  0.82300000  1.0
  O  O224  1  0.34950000  0.66100000  0.58020000  1.0
  O  O225  1  0.38020000  0.65320000  0.69060000  1.0
  O  O226  1  0.20830000  0.72850000  0.86990000  1.0
  O  O227  1  0.13080000  0.74460000  0.80720000  1.0
  O  O228  1  0.55750000  0.15730000  0.93110000  1.0
  O  O229  1  0.60580000  0.08770000  0.87060000  1.0
  O  O230  1  0.61250000  0.36040000  0.87670000  1.0
  O  O231  1  0.70590000  0.36760000  0.85500000  1.0
  O  O232  1  0.69920000  0.14450000  0.64760000  1.0
  O  O233  1  0.77490000  0.19670000  0.67700000  1.0
  O  O234  1  0.66100000  0.34950000  0.91980000  1.0
  O  O235  1  0.65320000  0.38020000  0.80940000  1.0
  O  O236  1  0.72850000  0.20830000  0.63010000  1.0
  O  O237  1  0.74460000  0.13080000  0.69280000  1.0
  O  O238  1  0.44250000  0.84270000  0.93110000  1.0
  O  O239  1  0.39420000  0.91230000  0.87060000  1.0
  O  O240  1  0.38750000  0.63960000  0.87670000  1.0
  O  O241  1  0.29410000  0.63240000  0.85500000  1.0
  O  O242  1  0.30080000  0.85550000  0.64760000  1.0
  O  O243  1  0.22510000  0.80330000  0.67700000  1.0
  O  O244  1  0.33900000  0.65050000  0.91980000  1.0
  O  O245  1  0.34680000  0.61980000  0.80940000  1.0
  O  O246  1  0.27150000  0.79170000  0.63010000  1.0
  O  O247  1  0.25540000  0.86920000  0.69280000  1.0
  O  O248  1  0.15730000  0.44250000  0.43110000  1.0
  O  O249  1  0.08770000  0.39420000  0.37060000  1.0
  O  O250  1  0.36040000  0.38750000  0.37670000  1.0
  O  O251  1  0.36760000  0.29410000  0.35500000  1.0
  O  O252  1  0.14450000  0.30080000  0.14760000  1.0
  O  O253  1  0.19670000  0.22510000  0.17700000  1.0
  O  O254  1  0.34950000  0.33900000  0.41980000  1.0
  O  O255  1  0.38020000  0.34680000  0.30940000  1.0
  O  O256  1  0.20830000  0.27150000  0.13010000  1.0
  O  O257  1  0.13080000  0.25540000  0.19280000  1.0
  O  O258  1  0.84270000  0.55750000  0.43110000  1.0
  O  O259  1  0.91230000  0.60580000  0.37060000  1.0
  O  O260  1  0.63960000  0.61250000  0.37670000  1.0
  O  O261  1  0.63240000  0.70590000  0.35500000  1.0
  O  O262  1  0.85550000  0.69920000  0.14760000  1.0
  O  O263  1  0.80330000  0.77490000  0.17700000  1.0
  O  O264  1  0.65050000  0.66100000  0.41980000  1.0
  O  O265  1  0.61980000  0.65320000  0.30940000  1.0
  O  O266  1  0.79170000  0.72850000  0.13010000  1.0
  O  O267  1  0.86920000  0.74460000  0.19280000  1.0
  O  O268  1  0.55750000  0.84270000  0.93110000  1.0
  O  O269  1  0.60580000  0.91230000  0.87060000  1.0
  O  O270  1  0.61250000  0.63960000  0.87670000  1.0
  O  O271  1  0.70590000  0.63240000  0.85500000  1.0
  O  O272  1  0.69920000  0.85550000  0.64760000  1.0
  O  O273  1  0.77490000  0.80330000  0.67700000  1.0
  O  O274  1  0.66100000  0.65050000  0.91980000  1.0
  O  O275  1  0.65320000  0.61980000  0.80940000  1.0
  O  O276  1  0.72850000  0.79170000  0.63010000  1.0
  O  O277  1  0.74460000  0.86920000  0.69280000  1.0
  O  O278  1  0.44250000  0.15730000  0.93110000  1.0
  O  O279  1  0.39420000  0.08770000  0.87060000  1.0
  O  O280  1  0.38750000  0.36040000  0.87670000  1.0
  O  O281  1  0.29410000  0.36760000  0.85500000  1.0
  O  O282  1  0.30080000  0.14450000  0.64760000  1.0
  O  O283  1  0.22510000  0.19670000  0.67700000  1.0
  O  O284  1  0.33900000  0.34950000  0.91980000  1.0
  O  O285  1  0.34680000  0.38020000  0.80940000  1.0
  O  O286  1  0.27150000  0.20830000  0.63010000  1.0
  O  O287  1  0.25540000  0.13080000  0.69280000  1.0
  O  O288  1  0.15730000  0.55750000  0.43110000  1.0
  O  O289  1  0.08770000  0.60580000  0.37060000  1.0
  O  O290  1  0.36040000  0.61250000  0.37670000  1.0
  O  O291  1  0.36760000  0.70590000  0.35500000  1.0
  O  O292  1  0.14450000  0.69920000  0.14760000  1.0
  O  O293  1  0.19670000  0.77490000  0.17700000  1.0
  O  O294  1  0.34950000  0.66100000  0.41980000  1.0
  O  O295  1  0.38020000  0.65320000  0.30940000  1.0
  O  O296  1  0.20830000  0.72850000  0.13010000  1.0
  O  O297  1  0.13080000  0.74460000  0.19280000  1.0
  O  O298  1  0.84270000  0.44250000  0.43110000  1.0
  O  O299  1  0.91230000  0.39420000  0.37060000  1.0
  O  O300  1  0.63960000  0.38750000  0.37670000  1.0
  O  O301  1  0.63240000  0.29410000  0.35500000  1.0
  O  O302  1  0.85550000  0.30080000  0.14760000  1.0
  O  O303  1  0.80330000  0.22510000  0.17700000  1.0
  O  O304  1  0.65050000  0.33900000  0.41980000  1.0
  O  O305  1  0.61980000  0.34680000  0.30940000  1.0
  O  O306  1  0.79170000  0.27150000  0.13010000  1.0
  O  O307  1  0.86920000  0.25540000  0.19280000  1.0
  O  O308  1  0.44250000  0.84270000  0.06890000  1.0
  O  O309  1  0.39420000  0.91230000  0.12940000  1.0
  O  O310  1  0.38750000  0.63960000  0.12330000  1.0
  O  O311  1  0.29410000  0.63240000  0.14500000  1.0
  O  O312  1  0.30080000  0.85550000  0.35240000  1.0
  O  O313  1  0.22510000  0.80330000  0.32300000  1.0
  O  O314  1  0.33900000  0.65050000  0.08020000  1.0
  O  O315  1  0.34680000  0.61980000  0.19060000  1.0
  O  O316  1  0.27150000  0.79170000  0.36990000  1.0
  O  O317  1  0.25540000  0.86920000  0.30720000  1.0
  O  O318  1  0.55750000  0.15730000  0.06890000  1.0
  O  O319  1  0.60580000  0.08770000  0.12940000  1.0
  O  O320  1  0.61250000  0.36040000  0.12330000  1.0
  O  O321  1  0.70590000  0.36760000  0.14500000  1.0
  O  O322  1  0.69920000  0.14450000  0.35240000  1.0
  O  O323  1  0.77490000  0.19670000  0.32300000  1.0
  O  O324  1  0.66100000  0.34950000  0.08020000  1.0
  O  O325  1  0.65320000  0.38020000  0.19060000  1.0
  O  O326  1  0.72850000  0.20830000  0.36990000  1.0
  O  O327  1  0.74460000  0.13080000  0.30720000  1.0
  O  O328  1  0.84270000  0.55750000  0.56890000  1.0
  O  O329  1  0.91230000  0.60580000  0.62940000  1.0
  O  O330  1  0.63960000  0.61250000  0.62330000  1.0
  O  O331  1  0.63240000  0.70590000  0.64500000  1.0
  O  O332  1  0.85550000  0.69920000  0.85240000  1.0
  O  O333  1  0.80330000  0.77490000  0.82300000  1.0
  O  O334  1  0.65050000  0.66100000  0.58020000  1.0
  O  O335  1  0.61980000  0.65320000  0.69060000  1.0
  O  O336  1  0.79170000  0.72850000  0.86990000  1.0
  O  O337  1  0.86920000  0.74460000  0.80720000  1.0
  O  O338  1  0.15730000  0.44250000  0.56890000  1.0
  O  O339  1  0.08770000  0.39420000  0.62940000  1.0
  O  O340  1  0.36040000  0.38750000  0.62330000  1.0
  O  O341  1  0.36760000  0.29410000  0.64500000  1.0
  O  O342  1  0.14450000  0.30080000  0.85240000  1.0
  O  O343  1  0.19670000  0.22510000  0.82300000  1.0
  O  O344  1  0.34950000  0.33900000  0.58020000  1.0
  O  O345  1  0.38020000  0.34680000  0.69060000  1.0
  O  O346  1  0.20830000  0.27150000  0.86990000  1.0
  O  O347  1  0.13080000  0.25540000  0.80720000  1.0
  O  O348  1  0.50000000  0.05200000  0.09200000  1.0
  O  O349  1  0.50000000  0.94800000  0.09200000  1.0
  O  O350  1  0.94800000  0.50000000  0.59200000  1.0
  O  O351  1  0.05200000  0.50000000  0.59200000  1.0
  O  O352  1  0.50000000  0.05200000  0.90800000  1.0
  O  O353  1  0.50000000  0.94800000  0.90800000  1.0
  O  O354  1  0.05200000  0.50000000  0.40800000  1.0
  O  O355  1  0.94800000  0.50000000  0.40800000  1.0
  O  O356  1  0.42250000  0.05300000  0.00000000  1.0
  O  O357  1  0.57750000  0.94700000  0.00000000  1.0
  O  O358  1  0.94700000  0.42250000  0.50000000  1.0
  O  O359  1  0.05300000  0.57750000  0.50000000  1.0
  O  O360  1  0.57750000  0.05300000  0.00000000  1.0
  O  O361  1  0.42250000  0.94700000  0.00000000  1.0
  O  O362  1  0.05300000  0.42250000  0.50000000  1.0
  O  O363  1  0.94700000  0.57750000  0.50000000  1.0
