# generated using pymatgen
data_Ag2H12C17N3O4
_symmetry_space_group_name_H-M   'P 1'
_cell_length_a   12.39370000
_cell_length_b   17.29920000
_cell_length_c   19.33000000
_cell_angle_alpha   90.00000000
_cell_angle_beta   90.00000000
_cell_angle_gamma   95.75000000
_symmetry_Int_Tables_number   1
_chemical_formula_structural   Ag2H12C17N3O4
_chemical_formula_sum   'Ag16 H96 C136 N24 O32'
_cell_volume   4123.52082917
_cell_formula_units_Z   8
loop_
 _symmetry_equiv_pos_site_id
 _symmetry_equiv_pos_as_xyz
  1  'x, y, z'
loop_
 _atom_site_type_symbol
 _atom_site_label
 _atom_site_symmetry_multiplicity
 _atom_site_fract_x
 _atom_site_fract_y
 _atom_site_fract_z
 _atom_site_occupancy
  Ag  Ag0  1  0.21684000  0.01669000  0.30161000  1.0
  Ag  Ag1  1  0.25234000  0.00409000  0.45417000  1.0
  Ag  Ag2  1  0.74983000  0.50669000  0.49818000  1.0
  Ag  Ag3  1  0.28316000  0.48331000  0.80161000  1.0
  Ag  Ag4  1  0.24766000  0.49591000  0.95417000  1.0
  Ag  Ag5  1  0.75017000  0.99331000  0.99818000  1.0
  Ag  Ag6  1  0.78316000  0.98331000  0.69839000  1.0
  Ag  Ag7  1  0.74766000  0.99591000  0.54583000  1.0
  Ag  Ag8  1  0.25017000  0.49331000  0.50182000  1.0
  Ag  Ag9  1  0.71684000  0.51669000  0.19839000  1.0
  Ag  Ag10  1  0.75234000  0.50409000  0.04583000  1.0
  Ag  Ag11  1  0.24983000  0.00669000  0.00182000  1.0
  Ag  Ag12  1  0.50000000  0.50000000  0.50000000  1.0
  Ag  Ag13  1  0.00000000  0.00000000  0.00000000  1.0
  Ag  Ag14  1  0.00000000  0.50000000  0.50000000  1.0
  Ag  Ag15  1  0.50000000  0.00000000  0.00000000  1.0
  H  H16  1  0.44940000  0.98300000  0.27800000  1.0
  H  H17  1  0.55060000  0.88260000  0.25440000  1.0
  H  H18  1  0.29340000  0.73100000  0.30210000  1.0
  H  H19  1  0.19620000  0.83560000  0.32450000  1.0
  H  H20  1  0.63190000  0.10300000  0.47790000  1.0
  H  H21  1  0.60860000  0.19720000  0.56930000  1.0
  H  H22  1  0.76030000  0.21860000  0.48730000  1.0
  H  H23  1  0.72540000  0.24960000  0.37920000  1.0
  H  H24  1  0.53700000  0.26160000  0.34530000  1.0
  H  H25  1  0.59740000  0.13360000  0.36980000  1.0
  H  H26  1  0.46700000  0.27950000  0.54860000  1.0
  H  H27  1  0.43050000  0.31030000  0.43480000  1.0
  H  H28  1  0.74440000  0.68620000  0.24180000  1.0
  H  H29  1  0.64810000  0.78720000  0.27430000  1.0
  H  H30  1  0.36960000  0.64930000  0.24000000  1.0
  H  H31  1  0.47510000  0.55050000  0.20800000  1.0
  H  H32  1  0.86560000  0.90670000  0.46040000  1.0
  H  H33  1  0.87310000  0.79430000  0.38320000  1.0
  H  H34  1  0.73660000  0.79460000  0.47580000  1.0
  H  H35  1  0.78730000  0.78080000  0.58530000  1.0
  H  H36  1  0.98000000  0.77540000  0.60840000  1.0
  H  H37  1  0.92140000  0.89790000  0.56900000  1.0
  H  H38  1  0.01710000  0.71650000  0.40750000  1.0
  H  H39  1  0.07000000  0.70590000  0.52280000  1.0
  H  H40  1  0.05060000  0.51700000  0.77800000  1.0
  H  H41  1  0.94940000  0.61740000  0.75440000  1.0
  H  H42  1  0.20660000  0.76900000  0.80210000  1.0
  H  H43  1  0.30380000  0.66440000  0.82450000  1.0
  H  H44  1  0.86810000  0.39700000  0.97790000  1.0
  H  H45  1  0.89140000  0.30280000  0.06930000  1.0
  H  H46  1  0.73970000  0.28140000  0.98730000  1.0
  H  H47  1  0.77460000  0.25040000  0.87920000  1.0
  H  H48  1  0.96300000  0.23840000  0.84530000  1.0
  H  H49  1  0.90260000  0.36640000  0.86980000  1.0
  H  H50  1  0.03300000  0.22050000  0.04860000  1.0
  H  H51  1  0.06950000  0.18970000  0.93480000  1.0
  H  H52  1  0.75560000  0.81380000  0.74180000  1.0
  H  H53  1  0.85190000  0.71280000  0.77430000  1.0
  H  H54  1  0.13040000  0.85070000  0.74000000  1.0
  H  H55  1  0.02490000  0.94950000  0.70800000  1.0
  H  H56  1  0.63440000  0.59330000  0.96040000  1.0
  H  H57  1  0.62690000  0.70570000  0.88320000  1.0
  H  H58  1  0.76340000  0.70540000  0.97580000  1.0
  H  H59  1  0.71270000  0.71920000  0.08530000  1.0
  H  H60  1  0.52000000  0.72460000  0.10840000  1.0
  H  H61  1  0.57860000  0.60210000  0.06900000  1.0
  H  H62  1  0.48290000  0.78350000  0.90750000  1.0
  H  H63  1  0.43000000  0.79410000  0.02280000  1.0
  H  H64  1  0.55060000  0.01700000  0.72200000  1.0
  H  H65  1  0.44940000  0.11740000  0.74560000  1.0
  H  H66  1  0.70660000  0.26900000  0.69790000  1.0
  H  H67  1  0.80380000  0.16440000  0.67550000  1.0
  H  H68  1  0.36810000  0.89700000  0.52210000  1.0
  H  H69  1  0.39140000  0.80280000  0.43070000  1.0
  H  H70  1  0.23970000  0.78140000  0.51270000  1.0
  H  H71  1  0.27460000  0.75040000  0.62080000  1.0
  H  H72  1  0.46300000  0.73840000  0.65470000  1.0
  H  H73  1  0.40260000  0.86640000  0.63020000  1.0
  H  H74  1  0.53300000  0.72050000  0.45140000  1.0
  H  H75  1  0.56950000  0.68970000  0.56520000  1.0
  H  H76  1  0.25560000  0.31380000  0.75820000  1.0
  H  H77  1  0.35190000  0.21280000  0.72570000  1.0
  H  H78  1  0.63040000  0.35070000  0.76000000  1.0
  H  H79  1  0.52490000  0.44950000  0.79200000  1.0
  H  H80  1  0.13440000  0.09330000  0.53960000  1.0
  H  H81  1  0.12690000  0.20570000  0.61680000  1.0
  H  H82  1  0.26340000  0.20540000  0.52420000  1.0
  H  H83  1  0.21270000  0.21920000  0.41470000  1.0
  H  H84  1  0.02000000  0.22460000  0.39160000  1.0
  H  H85  1  0.07860000  0.10210000  0.43100000  1.0
  H  H86  1  0.98290000  0.28350000  0.59250000  1.0
  H  H87  1  0.93000000  0.29410000  0.47720000  1.0
  H  H88  1  0.94940000  0.48300000  0.22200000  1.0
  H  H89  1  0.05060000  0.38260000  0.24560000  1.0
  H  H90  1  0.79340000  0.23100000  0.19790000  1.0
  H  H91  1  0.69620000  0.33560000  0.17550000  1.0
  H  H92  1  0.13190000  0.60300000  0.02210000  1.0
  H  H93  1  0.10860000  0.69720000  0.93070000  1.0
  H  H94  1  0.26030000  0.71860000  0.01270000  1.0
  H  H95  1  0.22540000  0.74960000  0.12080000  1.0
  H  H96  1  0.03700000  0.76160000  0.15470000  1.0
  H  H97  1  0.09740000  0.63360000  0.13020000  1.0
  H  H98  1  0.96700000  0.77950000  0.95140000  1.0
  H  H99  1  0.93050000  0.81030000  0.06520000  1.0
  H  H100  1  0.24440000  0.18620000  0.25820000  1.0
  H  H101  1  0.14810000  0.28720000  0.22570000  1.0
  H  H102  1  0.86960000  0.14930000  0.26000000  1.0
  H  H103  1  0.97510000  0.05050000  0.29200000  1.0
  H  H104  1  0.36560000  0.40670000  0.03960000  1.0
  H  H105  1  0.37310000  0.29430000  0.11680000  1.0
  H  H106  1  0.23660000  0.29460000  0.02420000  1.0
  H  H107  1  0.28730000  0.28080000  0.91470000  1.0
  H  H108  1  0.48000000  0.27540000  0.89160000  1.0
  H  H109  1  0.42140000  0.39790000  0.93100000  1.0
  H  H110  1  0.51710000  0.21650000  0.09250000  1.0
  H  H111  1  0.57000000  0.20590000  0.97720000  1.0
  C  C112  1  0.41670000  0.93130000  0.28280000  1.0
  C  C113  1  0.47730000  0.87160000  0.26870000  1.0
  C  C114  1  0.43320000  0.79560000  0.27500000  1.0
  C  C115  1  0.32670000  0.78250000  0.29650000  1.0
  C  C116  1  0.26950000  0.84540000  0.30990000  1.0
  C  C117  1  0.46730000  0.08970000  0.49960000  1.0
  C  C118  1  0.57010000  0.13590000  0.47630000  1.0
  C  C119  1  0.59660000  0.20960000  0.51950000  1.0
  C  C120  1  0.69960000  0.25250000  0.48610000  1.0
  C  C121  1  0.73480000  0.32960000  0.51940000  1.0
  C  C122  1  0.69690000  0.36180000  0.41010000  1.0
  C  C123  1  0.67500000  0.27340000  0.41150000  1.0
  C  C124  1  0.55620000  0.24580000  0.39320000  1.0
  C  C125  1  0.54570000  0.15660000  0.40170000  1.0
  C  C126  1  0.43200000  0.11820000  0.39010000  1.0
  C  C127  1  0.50610000  0.26130000  0.51060000  1.0
  C  C128  1  0.48610000  0.27870000  0.44680000  1.0
  C  C129  1  0.66740000  0.67850000  0.24150000  1.0
  C  C130  1  0.61060000  0.73910000  0.26040000  1.0
  C  C131  1  0.49850000  0.73020000  0.25910000  1.0
  C  C132  1  0.44650000  0.65820000  0.24030000  1.0
  C  C133  1  0.51050000  0.59930000  0.22170000  1.0
  C  C134  1  0.02620000  0.91590000  0.42670000  1.0
  C  C135  1  0.92800000  0.87430000  0.46260000  1.0
  C  C136  1  0.89380000  0.79210000  0.43310000  1.0
  C  C137  1  0.79650000  0.76010000  0.47880000  1.0
  C  C138  1  0.75570000  0.67710000  0.45840000  1.0
  C  C139  1  0.81550000  0.66500000  0.56670000  1.0
  C  C140  1  0.83260000  0.75200000  0.55330000  1.0
  C  C141  1  0.95330000  0.78170000  0.56010000  1.0
  C  C142  1  0.96530000  0.86710000  0.53790000  1.0
  C  C143  1  0.08120000  0.90280000  0.53640000  1.0
  C  C144  1  0.98420000  0.74210000  0.44430000  1.0
  C  C145  1  0.01410000  0.73640000  0.50900000  1.0
  C  C146  1  0.08330000  0.56870000  0.78280000  1.0
  C  C147  1  0.02270000  0.62840000  0.76870000  1.0
  C  C148  1  0.06680000  0.70440000  0.77500000  1.0
  C  C149  1  0.17330000  0.71750000  0.79650000  1.0
  C  C150  1  0.23050000  0.65460000  0.80990000  1.0
  C  C151  1  0.03270000  0.41030000  0.99960000  1.0
  C  C152  1  0.92990000  0.36410000  0.97630000  1.0
  C  C153  1  0.90340000  0.29040000  0.01950000  1.0
  C  C154  1  0.80040000  0.24750000  0.98610000  1.0
  C  C155  1  0.76520000  0.17040000  0.01940000  1.0
  C  C156  1  0.80310000  0.13820000  0.91010000  1.0
  C  C157  1  0.82500000  0.22660000  0.91150000  1.0
  C  C158  1  0.94380000  0.25420000  0.89320000  1.0
  C  C159  1  0.95430000  0.34340000  0.90170000  1.0
  C  C160  1  0.06800000  0.38180000  0.89010000  1.0
  C  C161  1  0.99390000  0.23870000  0.01060000  1.0
  C  C162  1  0.01390000  0.22130000  0.94680000  1.0
  C  C163  1  0.83260000  0.82150000  0.74150000  1.0
  C  C164  1  0.88940000  0.76090000  0.76040000  1.0
  C  C165  1  0.00150000  0.76980000  0.75910000  1.0
  C  C166  1  0.05350000  0.84180000  0.74030000  1.0
  C  C167  1  0.98950000  0.90070000  0.72170000  1.0
  C  C168  1  0.47380000  0.58410000  0.92670000  1.0
  C  C169  1  0.57200000  0.62570000  0.96260000  1.0
  C  C170  1  0.60620000  0.70790000  0.93310000  1.0
  C  C171  1  0.70350000  0.73990000  0.97880000  1.0
  C  C172  1  0.74430000  0.82290000  0.95840000  1.0
  C  C173  1  0.68450000  0.83500000  0.06670000  1.0
  C  C174  1  0.66740000  0.74800000  0.05330000  1.0
  C  C175  1  0.54670000  0.71830000  0.06010000  1.0
  C  C176  1  0.53470000  0.63290000  0.03790000  1.0
  C  C177  1  0.41880000  0.59720000  0.03640000  1.0
  C  C178  1  0.51580000  0.75790000  0.94430000  1.0
  C  C179  1  0.48590000  0.76360000  0.00900000  1.0
  C  C180  1  0.58330000  0.06870000  0.71720000  1.0
  C  C181  1  0.52270000  0.12840000  0.73130000  1.0
  C  C182  1  0.56680000  0.20440000  0.72500000  1.0
  C  C183  1  0.67330000  0.21750000  0.70350000  1.0
  C  C184  1  0.73050000  0.15460000  0.69010000  1.0
  C  C185  1  0.53270000  0.91030000  0.50040000  1.0
  C  C186  1  0.42990000  0.86410000  0.52370000  1.0
  C  C187  1  0.40340000  0.79040000  0.48050000  1.0
  C  C188  1  0.30040000  0.74750000  0.51390000  1.0
  C  C189  1  0.26520000  0.67040000  0.48060000  1.0
  C  C190  1  0.30310000  0.63820000  0.58990000  1.0
  C  C191  1  0.32500000  0.72660000  0.58850000  1.0
  C  C192  1  0.44380000  0.75420000  0.60680000  1.0
  C  C193  1  0.45430000  0.84340000  0.59830000  1.0
  C  C194  1  0.56800000  0.88180000  0.60990000  1.0
  C  C195  1  0.49390000  0.73870000  0.48940000  1.0
  C  C196  1  0.51390000  0.72130000  0.55320000  1.0
  C  C197  1  0.33260000  0.32150000  0.75850000  1.0
  C  C198  1  0.38940000  0.26090000  0.73960000  1.0
  C  C199  1  0.50150000  0.26980000  0.74090000  1.0
  C  C200  1  0.55350000  0.34180000  0.75970000  1.0
  C  C201  1  0.48950000  0.40070000  0.77830000  1.0
  C  C202  1  0.97380000  0.08410000  0.57330000  1.0
  C  C203  1  0.07200000  0.12570000  0.53740000  1.0
  C  C204  1  0.10620000  0.20790000  0.56690000  1.0
  C  C205  1  0.20350000  0.23990000  0.52120000  1.0
  C  C206  1  0.24430000  0.32290000  0.54160000  1.0
  C  C207  1  0.18450000  0.33500000  0.43330000  1.0
  C  C208  1  0.16740000  0.24800000  0.44670000  1.0
  C  C209  1  0.04670000  0.21830000  0.43990000  1.0
  C  C210  1  0.03470000  0.13290000  0.46210000  1.0
  C  C211  1  0.91880000  0.09720000  0.46360000  1.0
  C  C212  1  0.01580000  0.25790000  0.55570000  1.0
  C  C213  1  0.98590000  0.26360000  0.49100000  1.0
  C  C214  1  0.91670000  0.43130000  0.21720000  1.0
  C  C215  1  0.97730000  0.37160000  0.23130000  1.0
  C  C216  1  0.93320000  0.29560000  0.22500000  1.0
  C  C217  1  0.82670000  0.28250000  0.20350000  1.0
  C  C218  1  0.76950000  0.34540000  0.19010000  1.0
  C  C219  1  0.96730000  0.58970000  0.00040000  1.0
  C  C220  1  0.07010000  0.63590000  0.02370000  1.0
  C  C221  1  0.09660000  0.70960000  0.98050000  1.0
  C  C222  1  0.19960000  0.75250000  0.01390000  1.0
  C  C223  1  0.23480000  0.82960000  0.98060000  1.0
  C  C224  1  0.19690000  0.86180000  0.08990000  1.0
  C  C225  1  0.17500000  0.77340000  0.08850000  1.0
  C  C226  1  0.05620000  0.74580000  0.10680000  1.0
  C  C227  1  0.04570000  0.65660000  0.09830000  1.0
  C  C228  1  0.93200000  0.61820000  0.10990000  1.0
  C  C229  1  0.00610000  0.76130000  0.98940000  1.0
  C  C230  1  0.98610000  0.77870000  0.05320000  1.0
  C  C231  1  0.16740000  0.17850000  0.25850000  1.0
  C  C232  1  0.11060000  0.23910000  0.23960000  1.0
  C  C233  1  0.99850000  0.23020000  0.24090000  1.0
  C  C234  1  0.94650000  0.15820000  0.25970000  1.0
  C  C235  1  0.01050000  0.09930000  0.27830000  1.0
  C  C236  1  0.52620000  0.41590000  0.07330000  1.0
  C  C237  1  0.42800000  0.37430000  0.03740000  1.0
  C  C238  1  0.39380000  0.29210000  0.06690000  1.0
  C  C239  1  0.29650000  0.26010000  0.02120000  1.0
  C  C240  1  0.25570000  0.17710000  0.04160000  1.0
  C  C241  1  0.31550000  0.16500000  0.93330000  1.0
  C  C242  1  0.33260000  0.25200000  0.94670000  1.0
  C  C243  1  0.45330000  0.28170000  0.93990000  1.0
  C  C244  1  0.46530000  0.36710000  0.96210000  1.0
  C  C245  1  0.58120000  0.40280000  0.96360000  1.0
  C  C246  1  0.48420000  0.24210000  0.05570000  1.0
  C  C247  1  0.51410000  0.23640000  0.99100000  1.0
  N  N248  1  0.31200000  0.91980000  0.30340000  1.0
  N  N249  1  0.39250000  0.08030000  0.44740000  1.0
  N  N250  1  0.72930000  0.38970000  0.47300000  1.0
  N  N251  1  0.61890000  0.60830000  0.22240000  1.0
  N  N252  1  0.10920000  0.93300000  0.47270000  1.0
  N  N253  1  0.76950000  0.62700000  0.51080000  1.0
  N  N254  1  0.18800000  0.58020000  0.80340000  1.0
  N  N255  1  0.10750000  0.41970000  0.94740000  1.0
  N  N256  1  0.77070000  0.11030000  0.97300000  1.0
  N  N257  1  0.88110000  0.89170000  0.72240000  1.0
  N  N258  1  0.39080000  0.56700000  0.97270000  1.0
  N  N259  1  0.73050000  0.87300000  0.01080000  1.0
  N  N260  1  0.68800000  0.08020000  0.69660000  1.0
  N  N261  1  0.60750000  0.91970000  0.55260000  1.0
  N  N262  1  0.27070000  0.61030000  0.52700000  1.0
  N  N263  1  0.38110000  0.39170000  0.77760000  1.0
  N  N264  1  0.89080000  0.06700000  0.52730000  1.0
  N  N265  1  0.23050000  0.37300000  0.48920000  1.0
  N  N266  1  0.81200000  0.41980000  0.19660000  1.0
  N  N267  1  0.89250000  0.58030000  0.05260000  1.0
  N  N268  1  0.22930000  0.88970000  0.02700000  1.0
  N  N269  1  0.11890000  0.10830000  0.27760000  1.0
  N  N270  1  0.60920000  0.43300000  0.02730000  1.0
  N  N271  1  0.26950000  0.12700000  0.98920000  1.0
  O  O272  1  0.68110000  0.40160000  0.35900000  1.0
  O  O273  1  0.76540000  0.33890000  0.57860000  1.0
  O  O274  1  0.45280000  0.06200000  0.55750000  1.0
  O  O275  1  0.38290000  0.12130000  0.33530000  1.0
  O  O276  1  0.14290000  0.90480000  0.58580000  1.0
  O  O277  1  0.03140000  0.93390000  0.36550000  1.0
  O  O278  1  0.71800000  0.65810000  0.40160000  1.0
  O  O279  1  0.84080000  0.63450000  0.62060000  1.0
  O  O280  1  0.81890000  0.09840000  0.85900000  1.0
  O  O281  1  0.73460000  0.16110000  0.07860000  1.0
  O  O282  1  0.04720000  0.43800000  0.05750000  1.0
  O  O283  1  0.11710000  0.37870000  0.83530000  1.0
  O  O284  1  0.35710000  0.59520000  0.08580000  1.0
  O  O285  1  0.46860000  0.56610000  0.86550000  1.0
  O  O286  1  0.78200000  0.84190000  0.90160000  1.0
  O  O287  1  0.65920000  0.86550000  0.12060000  1.0
  O  O288  1  0.31890000  0.59840000  0.64100000  1.0
  O  O289  1  0.23460000  0.66110000  0.42140000  1.0
  O  O290  1  0.54720000  0.93800000  0.44250000  1.0
  O  O291  1  0.61710000  0.87870000  0.66470000  1.0
  O  O292  1  0.85710000  0.09520000  0.41420000  1.0
  O  O293  1  0.96860000  0.06610000  0.63450000  1.0
  O  O294  1  0.28200000  0.34190000  0.59840000  1.0
  O  O295  1  0.15920000  0.36550000  0.37940000  1.0
  O  O296  1  0.18110000  0.90160000  0.14100000  1.0
  O  O297  1  0.26540000  0.83890000  0.92140000  1.0
  O  O298  1  0.95280000  0.56200000  0.94250000  1.0
  O  O299  1  0.88290000  0.62130000  0.16470000  1.0
  O  O300  1  0.64290000  0.40480000  0.91420000  1.0
  O  O301  1  0.53140000  0.43390000  0.13450000  1.0
  O  O302  1  0.21800000  0.15810000  0.09840000  1.0
  O  O303  1  0.34080000  0.13450000  0.87940000  1.0
