# generated using pymatgen
data_ZnH6(C3N2)2
_symmetry_space_group_name_H-M   'P 1'
_cell_length_a   17.05800000
_cell_length_b   19.07300000
_cell_length_c   19.07300000
_cell_angle_alpha   90.00000000
_cell_angle_beta   90.00000000
_cell_angle_gamma   90.00000000
_symmetry_Int_Tables_number   1
_chemical_formula_structural   ZnH6(C3N2)2
_chemical_formula_sum   'Zn16 H96 C96 N64'
_cell_volume   6205.34779408
_cell_formula_units_Z   16
loop_
 _symmetry_equiv_pos_site_id
 _symmetry_equiv_pos_as_xyz
  1  'x, y, z'
loop_
 _atom_site_type_symbol
 _atom_site_label
 _atom_site_symmetry_multiplicity
 _atom_site_fract_x
 _atom_site_fract_y
 _atom_site_fract_z
 _atom_site_occupancy
  Zn  Zn0  1  0.82358000  0.88612000  0.33491000  1.0
  Zn  Zn1  1  0.82358000  0.11388000  0.66509000  1.0
  Zn  Zn2  1  0.32358000  0.16509000  0.38612000  1.0
  Zn  Zn3  1  0.32358000  0.83491000  0.61388000  1.0
  Zn  Zn4  1  0.67642000  0.61388000  0.83491000  1.0
  Zn  Zn5  1  0.67642000  0.38612000  0.16509000  1.0
  Zn  Zn6  1  0.17642000  0.33491000  0.88612000  1.0
  Zn  Zn7  1  0.17642000  0.66509000  0.11388000  1.0
  Zn  Zn8  1  0.17642000  0.11388000  0.66509000  1.0
  Zn  Zn9  1  0.17642000  0.88612000  0.33491000  1.0
  Zn  Zn10  1  0.67642000  0.83491000  0.61388000  1.0
  Zn  Zn11  1  0.67642000  0.16509000  0.38612000  1.0
  Zn  Zn12  1  0.32358000  0.38612000  0.16509000  1.0
  Zn  Zn13  1  0.32358000  0.61388000  0.83491000  1.0
  Zn  Zn14  1  0.82358000  0.66509000  0.11388000  1.0
  Zn  Zn15  1  0.82358000  0.33491000  0.88612000  1.0
  H  H16  1  0.92860000  0.77030000  0.40630000  1.0
  H  H17  1  0.69140000  0.87570000  0.21510000  1.0
  H  H18  1  0.85690000  0.02270000  0.23780000  1.0
  H  H19  1  0.71150000  0.75520000  0.36590000  1.0
  H  H20  1  0.71810000  0.00290000  0.39720000  1.0
  H  H21  1  0.92860000  0.22970000  0.59370000  1.0
  H  H22  1  0.69140000  0.12430000  0.78490000  1.0
  H  H23  1  0.85690000  0.97730000  0.76220000  1.0
  H  H24  1  0.71150000  0.24480000  0.63410000  1.0
  H  H25  1  0.71810000  0.99710000  0.60280000  1.0
  H  H26  1  0.42860000  0.09370000  0.27030000  1.0
  H  H27  1  0.19140000  0.28490000  0.37570000  1.0
  H  H28  1  0.35690000  0.26220000  0.52270000  1.0
  H  H29  1  0.21150000  0.13410000  0.25520000  1.0
  H  H30  1  0.21810000  0.10280000  0.50290000  1.0
  H  H31  1  0.42860000  0.90630000  0.72970000  1.0
  H  H32  1  0.19140000  0.71510000  0.62430000  1.0
  H  H33  1  0.35690000  0.73780000  0.47730000  1.0
  H  H34  1  0.21150000  0.86590000  0.74480000  1.0
  H  H35  1  0.21810000  0.89720000  0.49710000  1.0
  H  H36  1  0.57140000  0.72970000  0.90630000  1.0
  H  H37  1  0.80860000  0.62430000  0.71510000  1.0
  H  H38  1  0.64310000  0.47730000  0.73780000  1.0
  H  H39  1  0.78850000  0.74480000  0.86590000  1.0
  H  H40  1  0.78190000  0.49710000  0.89720000  1.0
  H  H41  1  0.57140000  0.27030000  0.09370000  1.0
  H  H42  1  0.80860000  0.37570000  0.28490000  1.0
  H  H43  1  0.64310000  0.52270000  0.26220000  1.0
  H  H44  1  0.78850000  0.25520000  0.13410000  1.0
  H  H45  1  0.78190000  0.50290000  0.10280000  1.0
  H  H46  1  0.07140000  0.40630000  0.77030000  1.0
  H  H47  1  0.30860000  0.21510000  0.87570000  1.0
  H  H48  1  0.14310000  0.23780000  0.02270000  1.0
  H  H49  1  0.28850000  0.36590000  0.75520000  1.0
  H  H50  1  0.28190000  0.39720000  0.00290000  1.0
  H  H51  1  0.07140000  0.59370000  0.22970000  1.0
  H  H52  1  0.30860000  0.78490000  0.12430000  1.0
  H  H53  1  0.14310000  0.76220000  0.97730000  1.0
  H  H54  1  0.28850000  0.63410000  0.24480000  1.0
  H  H55  1  0.28190000  0.60280000  0.99710000  1.0
  H  H56  1  0.07140000  0.22970000  0.59370000  1.0
  H  H57  1  0.30860000  0.12430000  0.78490000  1.0
  H  H58  1  0.14310000  0.97730000  0.76220000  1.0
  H  H59  1  0.28850000  0.24480000  0.63410000  1.0
  H  H60  1  0.28190000  0.99710000  0.60280000  1.0
  H  H61  1  0.07140000  0.77030000  0.40630000  1.0
  H  H62  1  0.30860000  0.87570000  0.21510000  1.0
  H  H63  1  0.14310000  0.02270000  0.23780000  1.0
  H  H64  1  0.28850000  0.75520000  0.36590000  1.0
  H  H65  1  0.28190000  0.00290000  0.39720000  1.0
  H  H66  1  0.57140000  0.90630000  0.72970000  1.0
  H  H67  1  0.80860000  0.71510000  0.62430000  1.0
  H  H68  1  0.64310000  0.73780000  0.47730000  1.0
  H  H69  1  0.78850000  0.86590000  0.74480000  1.0
  H  H70  1  0.78190000  0.89720000  0.49710000  1.0
  H  H71  1  0.57140000  0.09370000  0.27030000  1.0
  H  H72  1  0.80860000  0.28490000  0.37570000  1.0
  H  H73  1  0.64310000  0.26220000  0.52270000  1.0
  H  H74  1  0.78850000  0.13410000  0.25520000  1.0
  H  H75  1  0.78190000  0.10280000  0.50290000  1.0
  H  H76  1  0.42860000  0.27030000  0.09370000  1.0
  H  H77  1  0.19140000  0.37570000  0.28490000  1.0
  H  H78  1  0.35690000  0.52270000  0.26220000  1.0
  H  H79  1  0.21150000  0.25520000  0.13410000  1.0
  H  H80  1  0.21810000  0.50290000  0.10280000  1.0
  H  H81  1  0.42860000  0.72970000  0.90630000  1.0
  H  H82  1  0.19140000  0.62430000  0.71510000  1.0
  H  H83  1  0.35690000  0.47730000  0.73780000  1.0
  H  H84  1  0.21150000  0.74480000  0.86590000  1.0
  H  H85  1  0.21810000  0.49710000  0.89720000  1.0
  H  H86  1  0.92860000  0.59370000  0.22970000  1.0
  H  H87  1  0.69140000  0.78490000  0.12430000  1.0
  H  H88  1  0.85690000  0.76220000  0.97730000  1.0
  H  H89  1  0.71150000  0.63410000  0.24480000  1.0
  H  H90  1  0.71810000  0.60280000  0.99710000  1.0
  H  H91  1  0.92860000  0.40630000  0.77030000  1.0
  H  H92  1  0.69140000  0.21510000  0.87570000  1.0
  H  H93  1  0.85690000  0.23780000  0.02270000  1.0
  H  H94  1  0.71150000  0.36590000  0.75520000  1.0
  H  H95  1  0.71810000  0.39720000  0.00290000  1.0
  H  H96  1  0.00000000  0.93190000  0.30310000  1.0
  H  H97  1  0.00000000  0.06810000  0.69690000  1.0
  H  H98  1  0.50000000  0.19690000  0.43190000  1.0
  H  H99  1  0.50000000  0.80310000  0.56810000  1.0
  H  H100  1  0.50000000  0.56810000  0.80310000  1.0
  H  H101  1  0.50000000  0.43190000  0.19690000  1.0
  H  H102  1  0.00000000  0.30310000  0.93190000  1.0
  H  H103  1  0.00000000  0.69690000  0.06810000  1.0
  H  H104  1  0.87320000  0.75570000  0.24430000  1.0
  H  H105  1  0.87320000  0.24430000  0.75570000  1.0
  H  H106  1  0.37320000  0.25570000  0.25570000  1.0
  H  H107  1  0.37320000  0.74430000  0.74430000  1.0
  H  H108  1  0.62680000  0.74430000  0.74430000  1.0
  H  H109  1  0.62680000  0.25570000  0.25570000  1.0
  H  H110  1  0.12680000  0.24430000  0.75570000  1.0
  H  H111  1  0.12680000  0.75570000  0.24430000  1.0
  C  C112  1  0.96020000  0.80580000  0.38860000  1.0
  C  C113  1  0.73070000  0.84270000  0.20780000  1.0
  C  C114  1  0.82230000  0.03270000  0.27420000  1.0
  C  C115  1  0.71400000  0.78460000  0.40470000  1.0
  C  C116  1  0.74890000  0.02310000  0.36240000  1.0
  C  C117  1  0.96020000  0.19420000  0.61140000  1.0
  C  C118  1  0.73070000  0.15730000  0.79220000  1.0
  C  C119  1  0.82230000  0.96730000  0.72580000  1.0
  C  C120  1  0.71400000  0.21540000  0.59530000  1.0
  C  C121  1  0.74890000  0.97690000  0.63760000  1.0
  C  C122  1  0.46020000  0.11140000  0.30580000  1.0
  C  C123  1  0.23070000  0.29220000  0.34270000  1.0
  C  C124  1  0.32230000  0.22580000  0.53270000  1.0
  C  C125  1  0.21400000  0.09530000  0.28460000  1.0
  C  C126  1  0.24890000  0.13760000  0.52310000  1.0
  C  C127  1  0.46020000  0.88860000  0.69420000  1.0
  C  C128  1  0.23070000  0.70780000  0.65730000  1.0
  C  C129  1  0.32230000  0.77420000  0.46730000  1.0
  C  C130  1  0.21400000  0.90470000  0.71540000  1.0
  C  C131  1  0.24890000  0.86240000  0.47690000  1.0
  C  C132  1  0.53980000  0.69420000  0.88860000  1.0
  C  C133  1  0.76930000  0.65730000  0.70780000  1.0
  C  C134  1  0.67770000  0.46730000  0.77420000  1.0
  C  C135  1  0.78600000  0.71540000  0.90470000  1.0
  C  C136  1  0.75110000  0.47690000  0.86240000  1.0
  C  C137  1  0.53980000  0.30580000  0.11140000  1.0
  C  C138  1  0.76930000  0.34270000  0.29220000  1.0
  C  C139  1  0.67770000  0.53270000  0.22580000  1.0
  C  C140  1  0.78600000  0.28460000  0.09530000  1.0
  C  C141  1  0.75110000  0.52310000  0.13760000  1.0
  C  C142  1  0.03980000  0.38860000  0.80580000  1.0
  C  C143  1  0.26930000  0.20780000  0.84270000  1.0
  C  C144  1  0.17770000  0.27420000  0.03270000  1.0
  C  C145  1  0.28600000  0.40470000  0.78460000  1.0
  C  C146  1  0.25110000  0.36240000  0.02310000  1.0
  C  C147  1  0.03980000  0.61140000  0.19420000  1.0
  C  C148  1  0.26930000  0.79220000  0.15730000  1.0
  C  C149  1  0.17770000  0.72580000  0.96730000  1.0
  C  C150  1  0.28600000  0.59530000  0.21540000  1.0
  C  C151  1  0.25110000  0.63760000  0.97690000  1.0
  C  C152  1  0.03980000  0.19420000  0.61140000  1.0
  C  C153  1  0.26930000  0.15730000  0.79220000  1.0
  C  C154  1  0.17770000  0.96730000  0.72580000  1.0
  C  C155  1  0.28600000  0.21540000  0.59530000  1.0
  C  C156  1  0.25110000  0.97690000  0.63760000  1.0
  C  C157  1  0.03980000  0.80580000  0.38860000  1.0
  C  C158  1  0.26930000  0.84270000  0.20780000  1.0
  C  C159  1  0.17770000  0.03270000  0.27420000  1.0
  C  C160  1  0.28600000  0.78460000  0.40470000  1.0
  C  C161  1  0.25110000  0.02310000  0.36240000  1.0
  C  C162  1  0.53980000  0.88860000  0.69420000  1.0
  C  C163  1  0.76930000  0.70780000  0.65730000  1.0
  C  C164  1  0.67770000  0.77420000  0.46730000  1.0
  C  C165  1  0.78600000  0.90470000  0.71540000  1.0
  C  C166  1  0.75110000  0.86240000  0.47690000  1.0
  C  C167  1  0.53980000  0.11140000  0.30580000  1.0
  C  C168  1  0.76930000  0.29220000  0.34270000  1.0
  C  C169  1  0.67770000  0.22580000  0.53270000  1.0
  C  C170  1  0.78600000  0.09530000  0.28460000  1.0
  C  C171  1  0.75110000  0.13760000  0.52310000  1.0
  C  C172  1  0.46020000  0.30580000  0.11140000  1.0
  C  C173  1  0.23070000  0.34270000  0.29220000  1.0
  C  C174  1  0.32230000  0.53270000  0.22580000  1.0
  C  C175  1  0.21400000  0.28460000  0.09530000  1.0
  C  C176  1  0.24890000  0.52310000  0.13760000  1.0
  C  C177  1  0.46020000  0.69420000  0.88860000  1.0
  C  C178  1  0.23070000  0.65730000  0.70780000  1.0
  C  C179  1  0.32230000  0.46730000  0.77420000  1.0
  C  C180  1  0.21400000  0.71540000  0.90470000  1.0
  C  C181  1  0.24890000  0.47690000  0.86240000  1.0
  C  C182  1  0.96020000  0.61140000  0.19420000  1.0
  C  C183  1  0.73070000  0.79220000  0.15730000  1.0
  C  C184  1  0.82230000  0.72580000  0.96730000  1.0
  C  C185  1  0.71400000  0.59530000  0.21540000  1.0
  C  C186  1  0.74890000  0.63760000  0.97690000  1.0
  C  C187  1  0.96020000  0.38860000  0.80580000  1.0
  C  C188  1  0.73070000  0.20780000  0.84270000  1.0
  C  C189  1  0.82230000  0.27420000  0.03270000  1.0
  C  C190  1  0.71400000  0.40470000  0.78460000  1.0
  C  C191  1  0.74890000  0.36240000  0.02310000  1.0
  C  C192  1  0.00000000  0.89460000  0.33450000  1.0
  C  C193  1  0.00000000  0.10540000  0.66550000  1.0
  C  C194  1  0.50000000  0.16550000  0.39460000  1.0
  C  C195  1  0.50000000  0.83450000  0.60540000  1.0
  C  C196  1  0.50000000  0.60540000  0.83450000  1.0
  C  C197  1  0.50000000  0.39460000  0.16550000  1.0
  C  C198  1  0.00000000  0.33450000  0.89460000  1.0
  C  C199  1  0.00000000  0.66550000  0.10540000  1.0
  C  C200  1  0.83150000  0.77790000  0.22210000  1.0
  C  C201  1  0.83150000  0.22210000  0.77790000  1.0
  C  C202  1  0.33150000  0.27790000  0.27790000  1.0
  C  C203  1  0.33150000  0.72210000  0.72210000  1.0
  C  C204  1  0.66850000  0.72210000  0.72210000  1.0
  C  C205  1  0.66850000  0.27790000  0.27790000  1.0
  C  C206  1  0.16850000  0.22210000  0.77790000  1.0
  C  C207  1  0.16850000  0.77790000  0.22210000  1.0
  N  N208  1  0.93430000  0.86580000  0.35870000  1.0
  N  N209  1  0.79870000  0.83660000  0.24610000  1.0
  N  N210  1  0.80040000  0.98700000  0.32500000  1.0
  N  N211  1  0.75480000  0.84600000  0.40920000  1.0
  N  N212  1  0.93430000  0.13420000  0.64130000  1.0
  N  N213  1  0.79870000  0.16340000  0.75390000  1.0
  N  N214  1  0.80040000  0.01300000  0.67500000  1.0
  N  N215  1  0.75480000  0.15400000  0.59080000  1.0
  N  N216  1  0.43430000  0.14130000  0.36580000  1.0
  N  N217  1  0.29870000  0.25390000  0.33660000  1.0
  N  N218  1  0.30040000  0.17500000  0.48700000  1.0
  N  N219  1  0.25480000  0.09080000  0.34600000  1.0
  N  N220  1  0.43430000  0.85870000  0.63420000  1.0
  N  N221  1  0.29870000  0.74610000  0.66340000  1.0
  N  N222  1  0.30040000  0.82500000  0.51300000  1.0
  N  N223  1  0.25480000  0.90920000  0.65400000  1.0
  N  N224  1  0.56570000  0.63420000  0.85870000  1.0
  N  N225  1  0.70130000  0.66340000  0.74610000  1.0
  N  N226  1  0.69960000  0.51300000  0.82500000  1.0
  N  N227  1  0.74520000  0.65400000  0.90920000  1.0
  N  N228  1  0.56570000  0.36580000  0.14130000  1.0
  N  N229  1  0.70130000  0.33660000  0.25390000  1.0
  N  N230  1  0.69960000  0.48700000  0.17500000  1.0
  N  N231  1  0.74520000  0.34600000  0.09080000  1.0
  N  N232  1  0.06570000  0.35870000  0.86580000  1.0
  N  N233  1  0.20130000  0.24610000  0.83660000  1.0
  N  N234  1  0.19960000  0.32500000  0.98700000  1.0
  N  N235  1  0.24520000  0.40920000  0.84600000  1.0
  N  N236  1  0.06570000  0.64130000  0.13420000  1.0
  N  N237  1  0.20130000  0.75390000  0.16340000  1.0
  N  N238  1  0.19960000  0.67500000  0.01300000  1.0
  N  N239  1  0.24520000  0.59080000  0.15400000  1.0
  N  N240  1  0.06570000  0.13420000  0.64130000  1.0
  N  N241  1  0.20130000  0.16340000  0.75390000  1.0
  N  N242  1  0.19960000  0.01300000  0.67500000  1.0
  N  N243  1  0.24520000  0.15400000  0.59080000  1.0
  N  N244  1  0.06570000  0.86580000  0.35870000  1.0
  N  N245  1  0.20130000  0.83660000  0.24610000  1.0
  N  N246  1  0.19960000  0.98700000  0.32500000  1.0
  N  N247  1  0.24520000  0.84600000  0.40920000  1.0
  N  N248  1  0.56570000  0.85870000  0.63420000  1.0
  N  N249  1  0.70130000  0.74610000  0.66340000  1.0
  N  N250  1  0.69960000  0.82500000  0.51300000  1.0
  N  N251  1  0.74520000  0.90920000  0.65400000  1.0
  N  N252  1  0.56570000  0.14130000  0.36580000  1.0
  N  N253  1  0.70130000  0.25390000  0.33660000  1.0
  N  N254  1  0.69960000  0.17500000  0.48700000  1.0
  N  N255  1  0.74520000  0.09080000  0.34600000  1.0
  N  N256  1  0.43430000  0.36580000  0.14130000  1.0
  N  N257  1  0.29870000  0.33660000  0.25390000  1.0
  N  N258  1  0.30040000  0.48700000  0.17500000  1.0
  N  N259  1  0.25480000  0.34600000  0.09080000  1.0
  N  N260  1  0.43430000  0.63420000  0.85870000  1.0
  N  N261  1  0.29870000  0.66340000  0.74610000  1.0
  N  N262  1  0.30040000  0.51300000  0.82500000  1.0
  N  N263  1  0.25480000  0.65400000  0.90920000  1.0
  N  N264  1  0.93430000  0.64130000  0.13420000  1.0
  N  N265  1  0.79870000  0.75390000  0.16340000  1.0
  N  N266  1  0.80040000  0.67500000  0.01300000  1.0
  N  N267  1  0.75480000  0.59080000  0.15400000  1.0
  N  N268  1  0.93430000  0.35870000  0.86580000  1.0
  N  N269  1  0.79870000  0.24610000  0.83660000  1.0
  N  N270  1  0.80040000  0.32500000  0.98700000  1.0
  N  N271  1  0.75480000  0.40920000  0.84600000  1.0
