# generated using pymatgen
data_ZnH12C18N2O3
_symmetry_space_group_name_H-M   'P 1'
_cell_length_a   26.43660000
_cell_length_b   26.43660000
_cell_length_c   5.32870000
_cell_angle_alpha   90.00000000
_cell_angle_beta   90.00000000
_cell_angle_gamma   90.00000000
_symmetry_Int_Tables_number   1
_chemical_formula_structural   ZnH12C18N2O3
_chemical_formula_sum   'Zn8 H96 C144 N16 O24'
_cell_volume   3724.19549629
_cell_formula_units_Z   8
loop_
 _symmetry_equiv_pos_site_id
 _symmetry_equiv_pos_as_xyz
  1  'x, y, z'
loop_
 _atom_site_type_symbol
 _atom_site_label
 _atom_site_symmetry_multiplicity
 _atom_site_fract_x
 _atom_site_fract_y
 _atom_site_fract_z
 _atom_site_occupancy
  Zn  Zn0  1  0.72623000  0.71490000  0.33260000  1.0
  Zn  Zn1  1  0.22623000  0.21490000  0.83260000  1.0
  Zn  Zn2  1  0.27377000  0.28510000  0.33260000  1.0
  Zn  Zn3  1  0.77377000  0.78510000  0.83260000  1.0
  Zn  Zn4  1  0.71490000  0.27377000  0.66740000  1.0
  Zn  Zn5  1  0.21490000  0.77377000  0.16740000  1.0
  Zn  Zn6  1  0.28510000  0.72623000  0.66740000  1.0
  Zn  Zn7  1  0.78510000  0.22623000  0.16740000  1.0
  H  H8  1  0.83200000  0.50650000  0.53110000  1.0
  H  H9  1  0.81270000  0.67930000  0.72660000  1.0
  H  H10  1  0.87710000  0.66970000  0.05710000  1.0
  H  H11  1  0.90010000  0.50060000  0.84640000  1.0
  H  H12  1  0.94800000  0.53760000  0.15080000  1.0
  H  H13  1  0.70460000  0.60710000  0.11560000  1.0
  H  H14  1  0.93510000  0.62130000  0.26630000  1.0
  H  H15  1  0.81160000  0.48560000  0.10680000  1.0
  H  H16  1  0.78610000  0.40490000  0.96830000  1.0
  H  H17  1  0.66790000  0.52140000  0.20940000  1.0
  H  H18  1  0.64250000  0.45300000  0.99270000  1.0
  H  H19  1  0.30250000  0.24247000  0.82510000  1.0
  H  H20  1  0.33200000  0.00650000  0.03110000  1.0
  H  H21  1  0.31270000  0.17930000  0.22660000  1.0
  H  H22  1  0.37710000  0.16970000  0.55710000  1.0
  H  H23  1  0.40010000  0.00060000  0.34640000  1.0
  H  H24  1  0.44800000  0.03760000  0.65080000  1.0
  H  H25  1  0.20460000  0.10710000  0.61560000  1.0
  H  H26  1  0.43510000  0.12130000  0.76630000  1.0
  H  H27  1  0.31160000  0.98560000  0.60680000  1.0
  H  H28  1  0.28610000  0.90490000  0.46830000  1.0
  H  H29  1  0.16790000  0.02140000  0.70940000  1.0
  H  H30  1  0.14250000  0.95300000  0.49270000  1.0
  H  H31  1  0.80250000  0.74247000  0.32510000  1.0
  H  H32  1  0.16800000  0.49350000  0.53110000  1.0
  H  H33  1  0.18730000  0.32070000  0.72660000  1.0
  H  H34  1  0.12290000  0.33030000  0.05710000  1.0
  H  H35  1  0.09990000  0.49940000  0.84640000  1.0
  H  H36  1  0.05200000  0.46240000  0.15080000  1.0
  H  H37  1  0.29540000  0.39290000  0.11560000  1.0
  H  H38  1  0.06490000  0.37870000  0.26630000  1.0
  H  H39  1  0.18840000  0.51440000  0.10680000  1.0
  H  H40  1  0.21390000  0.59510000  0.96830000  1.0
  H  H41  1  0.33210000  0.47860000  0.20940000  1.0
  H  H42  1  0.35750000  0.54700000  0.99270000  1.0
  H  H43  1  0.69750000  0.75753000  0.82510000  1.0
  H  H44  1  0.66800000  0.99350000  0.03110000  1.0
  H  H45  1  0.68730000  0.82070000  0.22660000  1.0
  H  H46  1  0.62290000  0.83030000  0.55710000  1.0
  H  H47  1  0.59990000  0.99940000  0.34640000  1.0
  H  H48  1  0.55200000  0.96240000  0.65080000  1.0
  H  H49  1  0.79540000  0.89290000  0.61560000  1.0
  H  H50  1  0.56490000  0.87870000  0.76630000  1.0
  H  H51  1  0.68840000  0.01440000  0.60680000  1.0
  H  H52  1  0.71390000  0.09510000  0.46830000  1.0
  H  H53  1  0.83210000  0.97860000  0.70940000  1.0
  H  H54  1  0.85750000  0.04700000  0.49270000  1.0
  H  H55  1  0.19750000  0.25753000  0.32510000  1.0
  H  H56  1  0.50650000  0.16800000  0.46890000  1.0
  H  H57  1  0.67930000  0.18730000  0.27340000  1.0
  H  H58  1  0.66970000  0.12290000  0.94290000  1.0
  H  H59  1  0.50060000  0.09990000  0.15360000  1.0
  H  H60  1  0.53760000  0.05200000  0.84920000  1.0
  H  H61  1  0.60710000  0.29540000  0.88440000  1.0
  H  H62  1  0.62130000  0.06490000  0.73370000  1.0
  H  H63  1  0.48560000  0.18840000  0.89320000  1.0
  H  H64  1  0.40490000  0.21390000  0.03170000  1.0
  H  H65  1  0.52140000  0.33210000  0.79060000  1.0
  H  H66  1  0.45300000  0.35750000  0.00730000  1.0
  H  H67  1  0.24247000  0.69750000  0.17490000  1.0
  H  H68  1  0.00650000  0.66800000  0.96890000  1.0
  H  H69  1  0.17930000  0.68730000  0.77340000  1.0
  H  H70  1  0.16970000  0.62290000  0.44290000  1.0
  H  H71  1  0.00060000  0.59990000  0.65360000  1.0
  H  H72  1  0.03760000  0.55200000  0.34920000  1.0
  H  H73  1  0.10710000  0.79540000  0.38440000  1.0
  H  H74  1  0.12130000  0.56490000  0.23370000  1.0
  H  H75  1  0.98560000  0.68840000  0.39320000  1.0
  H  H76  1  0.90490000  0.71390000  0.53170000  1.0
  H  H77  1  0.02140000  0.83210000  0.29060000  1.0
  H  H78  1  0.95300000  0.85750000  0.50730000  1.0
  H  H79  1  0.74247000  0.19750000  0.67490000  1.0
  H  H80  1  0.49350000  0.83200000  0.46890000  1.0
  H  H81  1  0.32070000  0.81270000  0.27340000  1.0
  H  H82  1  0.33030000  0.87710000  0.94290000  1.0
  H  H83  1  0.49940000  0.90010000  0.15360000  1.0
  H  H84  1  0.46240000  0.94800000  0.84920000  1.0
  H  H85  1  0.39290000  0.70460000  0.88440000  1.0
  H  H86  1  0.37870000  0.93510000  0.73370000  1.0
  H  H87  1  0.51440000  0.81160000  0.89320000  1.0
  H  H88  1  0.59510000  0.78610000  0.03170000  1.0
  H  H89  1  0.47860000  0.66790000  0.79060000  1.0
  H  H90  1  0.54700000  0.64250000  0.00730000  1.0
  H  H91  1  0.75753000  0.30250000  0.17490000  1.0
  H  H92  1  0.99350000  0.33200000  0.96890000  1.0
  H  H93  1  0.82070000  0.31270000  0.77340000  1.0
  H  H94  1  0.83030000  0.37710000  0.44290000  1.0
  H  H95  1  0.99940000  0.40010000  0.65360000  1.0
  H  H96  1  0.96240000  0.44800000  0.34920000  1.0
  H  H97  1  0.89290000  0.20460000  0.38440000  1.0
  H  H98  1  0.87870000  0.43510000  0.23370000  1.0
  H  H99  1  0.01440000  0.31160000  0.39320000  1.0
  H  H100  1  0.09510000  0.28610000  0.53170000  1.0
  H  H101  1  0.97860000  0.16790000  0.29060000  1.0
  H  H102  1  0.04700000  0.14250000  0.50730000  1.0
  H  H103  1  0.25753000  0.80250000  0.67490000  1.0
  C  C104  1  0.74157000  0.51149000  0.17340000  1.0
  C  C105  1  0.82774000  0.54038000  0.57240000  1.0
  C  C106  1  0.79160000  0.56947000  0.45430000  1.0
  C  C107  1  0.85277000  0.61560000  0.81480000  1.0
  C  C108  1  0.85786000  0.56330000  0.75620000  1.0
  C  C109  1  0.81676000  0.64515000  0.68880000  1.0
  C  C110  1  0.78733000  0.62200000  0.50580000  1.0
  C  C111  1  0.88160000  0.63600000  0.01140000  1.0
  C  C112  1  0.89510000  0.53450000  0.88640000  1.0
  C  C113  1  0.92340000  0.55660000  0.06890000  1.0
  C  C114  1  0.73140000  0.60402000  0.22770000  1.0
  C  C115  1  0.91630000  0.60720000  0.13640000  1.0
  C  C116  1  0.77740000  0.47740000  0.09900000  1.0
  C  C117  1  0.71500000  0.41887000  0.98360000  1.0
  C  C118  1  0.76190000  0.42910000  0.00900000  1.0
  C  C119  1  0.69200000  0.49920000  0.14600000  1.0
  C  C120  1  0.67630000  0.45770000  0.03600000  1.0
  C  C121  1  0.69590000  0.36920000  0.89700000  1.0
  C  C122  1  0.24157000  0.01149000  0.67340000  1.0
  C  C123  1  0.32774000  0.04038000  0.07240000  1.0
  C  C124  1  0.29160000  0.06947000  0.95430000  1.0
  C  C125  1  0.35277000  0.11560000  0.31480000  1.0
  C  C126  1  0.35786000  0.06330000  0.25620000  1.0
  C  C127  1  0.31676000  0.14515000  0.18880000  1.0
  C  C128  1  0.28733000  0.12200000  0.00580000  1.0
  C  C129  1  0.38160000  0.13600000  0.51140000  1.0
  C  C130  1  0.39510000  0.03450000  0.38640000  1.0
  C  C131  1  0.42340000  0.05660000  0.56890000  1.0
  C  C132  1  0.23140000  0.10402000  0.72770000  1.0
  C  C133  1  0.41630000  0.10720000  0.63640000  1.0
  C  C134  1  0.27740000  0.97740000  0.59900000  1.0
  C  C135  1  0.21500000  0.91887000  0.48360000  1.0
  C  C136  1  0.26190000  0.92910000  0.50900000  1.0
  C  C137  1  0.19200000  0.99920000  0.64600000  1.0
  C  C138  1  0.17630000  0.95770000  0.53600000  1.0
  C  C139  1  0.19590000  0.86920000  0.39700000  1.0
  C  C140  1  0.25843000  0.48851000  0.17340000  1.0
  C  C141  1  0.17226000  0.45962000  0.57240000  1.0
  C  C142  1  0.20840000  0.43053000  0.45430000  1.0
  C  C143  1  0.14723000  0.38440000  0.81480000  1.0
  C  C144  1  0.14214000  0.43670000  0.75620000  1.0
  C  C145  1  0.18324000  0.35485000  0.68880000  1.0
  C  C146  1  0.21267000  0.37800000  0.50580000  1.0
  C  C147  1  0.11840000  0.36400000  0.01140000  1.0
  C  C148  1  0.10490000  0.46550000  0.88640000  1.0
  C  C149  1  0.07660000  0.44340000  0.06890000  1.0
  C  C150  1  0.26860000  0.39598000  0.22770000  1.0
  C  C151  1  0.08370000  0.39280000  0.13640000  1.0
  C  C152  1  0.22260000  0.52260000  0.09900000  1.0
  C  C153  1  0.28500000  0.58113000  0.98360000  1.0
  C  C154  1  0.23810000  0.57090000  0.00900000  1.0
  C  C155  1  0.30800000  0.50080000  0.14600000  1.0
  C  C156  1  0.32370000  0.54230000  0.03600000  1.0
  C  C157  1  0.30410000  0.63080000  0.89700000  1.0
  C  C158  1  0.75843000  0.98851000  0.67340000  1.0
  C  C159  1  0.67226000  0.95962000  0.07240000  1.0
  C  C160  1  0.70840000  0.93053000  0.95430000  1.0
  C  C161  1  0.64723000  0.88440000  0.31480000  1.0
  C  C162  1  0.64214000  0.93670000  0.25620000  1.0
  C  C163  1  0.68324000  0.85485000  0.18880000  1.0
  C  C164  1  0.71267000  0.87800000  0.00580000  1.0
  C  C165  1  0.61840000  0.86400000  0.51140000  1.0
  C  C166  1  0.60490000  0.96550000  0.38640000  1.0
  C  C167  1  0.57660000  0.94340000  0.56890000  1.0
  C  C168  1  0.76860000  0.89598000  0.72770000  1.0
  C  C169  1  0.58370000  0.89280000  0.63640000  1.0
  C  C170  1  0.72260000  0.02260000  0.59900000  1.0
  C  C171  1  0.78500000  0.08113000  0.48360000  1.0
  C  C172  1  0.73810000  0.07090000  0.50900000  1.0
  C  C173  1  0.80800000  0.00080000  0.64600000  1.0
  C  C174  1  0.82370000  0.04230000  0.53600000  1.0
  C  C175  1  0.80410000  0.13080000  0.39700000  1.0
  C  C176  1  0.51149000  0.25843000  0.82660000  1.0
  C  C177  1  0.54038000  0.17226000  0.42760000  1.0
  C  C178  1  0.56947000  0.20840000  0.54570000  1.0
  C  C179  1  0.61560000  0.14723000  0.18520000  1.0
  C  C180  1  0.56330000  0.14214000  0.24380000  1.0
  C  C181  1  0.64515000  0.18324000  0.31120000  1.0
  C  C182  1  0.62200000  0.21267000  0.49420000  1.0
  C  C183  1  0.63600000  0.11840000  0.98860000  1.0
  C  C184  1  0.53450000  0.10490000  0.11360000  1.0
  C  C185  1  0.55660000  0.07660000  0.93110000  1.0
  C  C186  1  0.60402000  0.26860000  0.77230000  1.0
  C  C187  1  0.60720000  0.08370000  0.86360000  1.0
  C  C188  1  0.47740000  0.22260000  0.90100000  1.0
  C  C189  1  0.41887000  0.28500000  0.01640000  1.0
  C  C190  1  0.42910000  0.23810000  0.99100000  1.0
  C  C191  1  0.49920000  0.30800000  0.85400000  1.0
  C  C192  1  0.45770000  0.32370000  0.96400000  1.0
  C  C193  1  0.36920000  0.30410000  0.10300000  1.0
  C  C194  1  0.01149000  0.75843000  0.32660000  1.0
  C  C195  1  0.04038000  0.67226000  0.92760000  1.0
  C  C196  1  0.06947000  0.70840000  0.04570000  1.0
  C  C197  1  0.11560000  0.64723000  0.68520000  1.0
  C  C198  1  0.06330000  0.64214000  0.74380000  1.0
  C  C199  1  0.14515000  0.68324000  0.81120000  1.0
  C  C200  1  0.12200000  0.71267000  0.99420000  1.0
  C  C201  1  0.13600000  0.61840000  0.48860000  1.0
  C  C202  1  0.03450000  0.60490000  0.61360000  1.0
  C  C203  1  0.05660000  0.57660000  0.43110000  1.0
  C  C204  1  0.10402000  0.76860000  0.27230000  1.0
  C  C205  1  0.10720000  0.58370000  0.36360000  1.0
  C  C206  1  0.97740000  0.72260000  0.40100000  1.0
  C  C207  1  0.91887000  0.78500000  0.51640000  1.0
  C  C208  1  0.92910000  0.73810000  0.49100000  1.0
  C  C209  1  0.99920000  0.80800000  0.35400000  1.0
  C  C210  1  0.95770000  0.82370000  0.46400000  1.0
  C  C211  1  0.86920000  0.80410000  0.60300000  1.0
  C  C212  1  0.48851000  0.74157000  0.82660000  1.0
  C  C213  1  0.45962000  0.82774000  0.42760000  1.0
  C  C214  1  0.43053000  0.79160000  0.54570000  1.0
  C  C215  1  0.38440000  0.85277000  0.18520000  1.0
  C  C216  1  0.43670000  0.85786000  0.24380000  1.0
  C  C217  1  0.35485000  0.81676000  0.31120000  1.0
  C  C218  1  0.37800000  0.78733000  0.49420000  1.0
  C  C219  1  0.36400000  0.88160000  0.98860000  1.0
  C  C220  1  0.46550000  0.89510000  0.11360000  1.0
  C  C221  1  0.44340000  0.92340000  0.93110000  1.0
  C  C222  1  0.39598000  0.73140000  0.77230000  1.0
  C  C223  1  0.39280000  0.91630000  0.86360000  1.0
  C  C224  1  0.52260000  0.77740000  0.90100000  1.0
  C  C225  1  0.58113000  0.71500000  0.01640000  1.0
  C  C226  1  0.57090000  0.76190000  0.99100000  1.0
  C  C227  1  0.50080000  0.69200000  0.85400000  1.0
  C  C228  1  0.54230000  0.67630000  0.96400000  1.0
  C  C229  1  0.63080000  0.69590000  0.10300000  1.0
  C  C230  1  0.98851000  0.24157000  0.32660000  1.0
  C  C231  1  0.95962000  0.32774000  0.92760000  1.0
  C  C232  1  0.93053000  0.29160000  0.04570000  1.0
  C  C233  1  0.88440000  0.35277000  0.68520000  1.0
  C  C234  1  0.93670000  0.35786000  0.74380000  1.0
  C  C235  1  0.85485000  0.31676000  0.81120000  1.0
  C  C236  1  0.87800000  0.28733000  0.99420000  1.0
  C  C237  1  0.86400000  0.38160000  0.48860000  1.0
  C  C238  1  0.96550000  0.39510000  0.61360000  1.0
  C  C239  1  0.94340000  0.42340000  0.43110000  1.0
  C  C240  1  0.89598000  0.23140000  0.27230000  1.0
  C  C241  1  0.89280000  0.41630000  0.36360000  1.0
  C  C242  1  0.02260000  0.27740000  0.40100000  1.0
  C  C243  1  0.08113000  0.21500000  0.51640000  1.0
  C  C244  1  0.07090000  0.26190000  0.49100000  1.0
  C  C245  1  0.00080000  0.19200000  0.35400000  1.0
  C  C246  1  0.04230000  0.17630000  0.46400000  1.0
  C  C247  1  0.13080000  0.19590000  0.60300000  1.0
  N  N248  1  0.74947000  0.64139000  0.35640000  1.0
  N  N249  1  0.75587000  0.55987000  0.27460000  1.0
  N  N250  1  0.24947000  0.14139000  0.85640000  1.0
  N  N251  1  0.25587000  0.05987000  0.77460000  1.0
  N  N252  1  0.25053000  0.35861000  0.35640000  1.0
  N  N253  1  0.24413000  0.44013000  0.27460000  1.0
  N  N254  1  0.75053000  0.85861000  0.85640000  1.0
  N  N255  1  0.74413000  0.94013000  0.77460000  1.0
  N  N256  1  0.64139000  0.25053000  0.64360000  1.0
  N  N257  1  0.55987000  0.24413000  0.72540000  1.0
  N  N258  1  0.14139000  0.75053000  0.14360000  1.0
  N  N259  1  0.05987000  0.74413000  0.22540000  1.0
  N  N260  1  0.35861000  0.74947000  0.64360000  1.0
  N  N261  1  0.44013000  0.75587000  0.72540000  1.0
  N  N262  1  0.85861000  0.24947000  0.14360000  1.0
  N  N263  1  0.94013000  0.25587000  0.22540000  1.0
  O  O264  1  0.22398000  0.24618000  0.15620000  1.0
  O  O265  1  0.72421000  0.33484000  0.86030000  1.0
  O  O266  1  0.65530000  0.35790000  0.81800000  1.0
  O  O267  1  0.72398000  0.74618000  0.65620000  1.0
  O  O268  1  0.22421000  0.83484000  0.36030000  1.0
  O  O269  1  0.15530000  0.85790000  0.31800000  1.0
  O  O270  1  0.77602000  0.75382000  0.15620000  1.0
  O  O271  1  0.27579000  0.66516000  0.86030000  1.0
  O  O272  1  0.34470000  0.64210000  0.81800000  1.0
  O  O273  1  0.27602000  0.25382000  0.65620000  1.0
  O  O274  1  0.77579000  0.16516000  0.36030000  1.0
  O  O275  1  0.84470000  0.14210000  0.31800000  1.0
  O  O276  1  0.24618000  0.77602000  0.84380000  1.0
  O  O277  1  0.33484000  0.27579000  0.13970000  1.0
  O  O278  1  0.35790000  0.34470000  0.18200000  1.0
  O  O279  1  0.74618000  0.27602000  0.34380000  1.0
  O  O280  1  0.83484000  0.77579000  0.63970000  1.0
  O  O281  1  0.85790000  0.84470000  0.68200000  1.0
  O  O282  1  0.75382000  0.22398000  0.84380000  1.0
  O  O283  1  0.66516000  0.72421000  0.13970000  1.0
  O  O284  1  0.64210000  0.65530000  0.18200000  1.0
  O  O285  1  0.25382000  0.72398000  0.34380000  1.0
  O  O286  1  0.16516000  0.22421000  0.63970000  1.0
  O  O287  1  0.14210000  0.15530000  0.68200000  1.0
