# generated using pymatgen
data_Cu10SiH48W12C48N24(ClO17)2
_symmetry_space_group_name_H-M   'P 1'
_cell_length_a   11.71520000
_cell_length_b   13.59220000
_cell_length_c   20.65320000
_cell_angle_alpha   89.21800000
_cell_angle_beta   76.35800000
_cell_angle_gamma   67.39300000
_symmetry_Int_Tables_number   1
_chemical_formula_structural   Cu10SiH48W12C48N24(ClO17)2
_chemical_formula_sum   'Cu10 Si1 H48 W12 C48 N24 Cl2 O34'
_cell_volume   2939.48149191
_cell_formula_units_Z   1
loop_
 _symmetry_equiv_pos_site_id
 _symmetry_equiv_pos_as_xyz
  1  'x, y, z'
loop_
 _atom_site_type_symbol
 _atom_site_label
 _atom_site_symmetry_multiplicity
 _atom_site_fract_x
 _atom_site_fract_y
 _atom_site_fract_z
 _atom_site_occupancy
  Cu  Cu0  1  0.68360000  0.93920000  0.76340000  1.0
  Cu  Cu1  1  0.29290000  0.85110000  0.60890000  1.0
  Cu  Cu2  1  0.50990000  0.31620000  0.71960000  1.0
  Cu  Cu3  1  0.87050000  0.52060000  0.84510000  1.0
  Cu  Cu4  1  0.52430000  0.19160000  0.87180000  1.0
  Cu  Cu5  1  0.31640000  0.06080000  0.23660000  1.0
  Cu  Cu6  1  0.70710000  0.14890000  0.39110000  1.0
  Cu  Cu7  1  0.49010000  0.68380000  0.28040000  1.0
  Cu  Cu8  1  0.12950000  0.47940000  0.15490000  1.0
  Cu  Cu9  1  0.47570000  0.80840000  0.12820000  1.0
  Si  Si10  1  0.00000000  0.00000000  0.00000000  1.0
  H  H11  1  0.58410000  0.77180000  0.76400000  1.0
  H  H12  1  0.46860000  0.72510000  0.69150000  1.0
  H  H13  1  0.32360000  0.03000000  0.66890000  1.0
  H  H14  1  0.45710000  0.06660000  0.71930000  1.0
  H  H15  1  0.45600000  0.64350000  0.51490000  1.0
  H  H16  1  0.53530000  0.60520000  0.40340000  1.0
  H  H17  1  0.38310000  0.88500000  0.36410000  1.0
  H  H18  1  0.30920000  0.95290000  0.48390000  1.0
  H  H19  1  0.78800000  0.26280000  0.71620000  1.0
  H  H20  1  0.89940000  0.32310000  0.76850000  1.0
  H  H21  1  0.48860000  0.52300000  0.78330000  1.0
  H  H22  1  0.59580000  0.57920000  0.83770000  1.0
  H  H23  1  0.31320000  0.25670000  0.10990000  1.0
  H  H24  1  0.46450000  0.15190000  0.02110000  1.0
  H  H25  1  0.36220000  0.41350000  0.91940000  1.0
  H  H26  1  0.19070000  0.50540000  0.02270000  1.0
  H  H27  1  0.94380000  0.79730000  0.77220000  1.0
  H  H28  1  0.82630000  0.98630000  0.64410000  1.0
  H  H29  1  0.03870000  0.94210000  0.58110000  1.0
  H  H30  1  0.15620000  0.76470000  0.71610000  1.0
  H  H31  1  0.31570000  0.25080000  0.80460000  1.0
  H  H32  1  0.29360000  0.51960000  0.73840000  1.0
  H  H33  1  0.08500000  0.59500000  0.78230000  1.0
  H  H34  1  0.09260000  0.31590000  0.85070000  1.0
  H  H35  1  0.41590000  0.22820000  0.23600000  1.0
  H  H36  1  0.53140000  0.27490000  0.30850000  1.0
  H  H37  1  0.67640000  0.97000000  0.33110000  1.0
  H  H38  1  0.54290000  0.93340000  0.28070000  1.0
  H  H39  1  0.54400000  0.35650000  0.48510000  1.0
  H  H40  1  0.46470000  0.39480000  0.59660000  1.0
  H  H41  1  0.61690000  0.11500000  0.63590000  1.0
  H  H42  1  0.69080000  0.04710000  0.51610000  1.0
  H  H43  1  0.21200000  0.73720000  0.28380000  1.0
  H  H44  1  0.10060000  0.67690000  0.23150000  1.0
  H  H45  1  0.51140000  0.47700000  0.21670000  1.0
  H  H46  1  0.40420000  0.42080000  0.16230000  1.0
  H  H47  1  0.68680000  0.74330000  0.89010000  1.0
  H  H48  1  0.53550000  0.84810000  0.97890000  1.0
  H  H49  1  0.63780000  0.58650000  0.08060000  1.0
  H  H50  1  0.80930000  0.49460000  0.97730000  1.0
  H  H51  1  0.05620000  0.20270000  0.22780000  1.0
  H  H52  1  0.17370000  0.01370000  0.35590000  1.0
  H  H53  1  0.96130000  0.05790000  0.41890000  1.0
  H  H54  1  0.84380000  0.23530000  0.28390000  1.0
  H  H55  1  0.68430000  0.74920000  0.19540000  1.0
  H  H56  1  0.70640000  0.48040000  0.26160000  1.0
  H  H57  1  0.91500000  0.40500000  0.21770000  1.0
  H  H58  1  0.90740000  0.68410000  0.14930000  1.0
  W  W59  1  0.79562000  0.96724000  0.91006000  1.0
  W  W60  1  0.00212000  0.74245000  0.97159000  1.0
  W  W61  1  0.73715000  0.94049000  0.08301000  1.0
  W  W62  1  0.25645000  0.80819000  0.88267000  1.0
  W  W63  1  0.78163000  0.22624000  0.94485000  1.0
  W  W64  1  0.04830000  0.04132000  0.82793000  1.0
  W  W65  1  0.20438000  0.03276000  0.08994000  1.0
  W  W66  1  0.99788000  0.25755000  0.02841000  1.0
  W  W67  1  0.26285000  0.05951000  0.91699000  1.0
  W  W68  1  0.74355000  0.19181000  0.11733000  1.0
  W  W69  1  0.21837000  0.77376000  0.05515000  1.0
  W  W70  1  0.95170000  0.95868000  0.17207000  1.0
  C  C71  1  0.53900000  0.82300000  0.73900000  1.0
  C  C72  1  0.46400000  0.79400000  0.69800000  1.0
  C  C73  1  0.38400000  0.97300000  0.68300000  1.0
  C  C74  1  0.46100000  0.99700000  0.71500000  1.0
  C  C75  1  0.43900000  0.69900000  0.48700000  1.0
  C  C76  1  0.47900000  0.67500000  0.41900000  1.0
  C  C77  1  0.39400000  0.83700000  0.39700000  1.0
  C  C78  1  0.34900000  0.88000000  0.47000000  1.0
  C  C79  1  0.74600000  0.32700000  0.74300000  1.0
  C  C80  1  0.81400000  0.36600000  0.77300000  1.0
  C  C81  1  0.57200000  0.47800000  0.78300000  1.0
  C  C82  1  0.63800000  0.51400000  0.81200000  1.0
  C  C83  1  0.32200000  0.29000000  0.07000000  1.0
  C  C84  1  0.41300000  0.22200000  0.01700000  1.0
  C  C85  1  0.35100000  0.37600000  0.95700000  1.0
  C  C86  1  0.25000000  0.43600000  0.02200000  1.0
  C  C87  1  0.95800000  0.83300000  0.73400000  1.0
  C  C88  1  0.89300000  0.93800000  0.66000000  1.0
  C  C89  1  0.02300000  0.91600000  0.62300000  1.0
  C  C90  1  0.09100000  0.81300000  0.70000000  1.0
  C  C91  1  0.26600000  0.32100000  0.80000000  1.0
  C  C92  1  0.25300000  0.47900000  0.76200000  1.0
  C  C93  1  0.12900000  0.52300000  0.78700000  1.0
  C  C94  1  0.13000000  0.36000000  0.82800000  1.0
  C  C95  1  0.46100000  0.17700000  0.26100000  1.0
  C  C96  1  0.53600000  0.20600000  0.30200000  1.0
  C  C97  1  0.61600000  0.02700000  0.31700000  1.0
  C  C98  1  0.53900000  0.00300000  0.28500000  1.0
  C  C99  1  0.56100000  0.30100000  0.51300000  1.0
  C  C100  1  0.52100000  0.32500000  0.58100000  1.0
  C  C101  1  0.60600000  0.16300000  0.60300000  1.0
  C  C102  1  0.65100000  0.12000000  0.53000000  1.0
  C  C103  1  0.25400000  0.67300000  0.25700000  1.0
  C  C104  1  0.18600000  0.63400000  0.22700000  1.0
  C  C105  1  0.42800000  0.52200000  0.21700000  1.0
  C  C106  1  0.36200000  0.48600000  0.18800000  1.0
  C  C107  1  0.67800000  0.71000000  0.93000000  1.0
  C  C108  1  0.58700000  0.77800000  0.98300000  1.0
  C  C109  1  0.64900000  0.62400000  0.04300000  1.0
  C  C110  1  0.75000000  0.56400000  0.97800000  1.0
  C  C111  1  0.04200000  0.16700000  0.26600000  1.0
  C  C112  1  0.10700000  0.06200000  0.34000000  1.0
  C  C113  1  0.97700000  0.08400000  0.37700000  1.0
  C  C114  1  0.90900000  0.18700000  0.30000000  1.0
  C  C115  1  0.73400000  0.67900000  0.20000000  1.0
  C  C116  1  0.74700000  0.52100000  0.23800000  1.0
  C  C117  1  0.87100000  0.47700000  0.21300000  1.0
  C  C118  1  0.87000000  0.64000000  0.17200000  1.0
  N  N119  1  0.54100000  0.91900000  0.74010000  1.0
  N  N120  1  0.38900000  0.88000000  0.67150000  1.0
  N  N121  1  0.37300000  0.80300000  0.51480000  1.0
  N  N122  1  0.44600000  0.73600000  0.38030000  1.0
  N  N123  1  0.61900000  0.37900000  0.75230000  1.0
  N  N124  1  0.77000000  0.45800000  0.80740000  1.0
  N  N125  1  0.25100000  0.38600000  0.07620000  1.0
  N  N126  1  0.42200000  0.26900000  0.95280000  1.0
  N  N127  1  0.86400000  0.89300000  0.71600000  1.0
  N  N128  1  0.12100000  0.85800000  0.64880000  1.0
  N  N129  1  0.32300000  0.37700000  0.76880000  1.0
  N  N130  1  0.06000000  0.46000000  0.82090000  1.0
  N  N131  1  0.45900000  0.08100000  0.25990000  1.0
  N  N132  1  0.61100000  0.12000000  0.32850000  1.0
  N  N133  1  0.62700000  0.19700000  0.48520000  1.0
  N  N134  1  0.55400000  0.26400000  0.61970000  1.0
  N  N135  1  0.38100000  0.62100000  0.24770000  1.0
  N  N136  1  0.23000000  0.54200000  0.19260000  1.0
  N  N137  1  0.74900000  0.61400000  0.92380000  1.0
  N  N138  1  0.57800000  0.73100000  0.04720000  1.0
  N  N139  1  0.13600000  0.10700000  0.28400000  1.0
  N  N140  1  0.87900000  0.14200000  0.35120000  1.0
  N  N141  1  0.67700000  0.62300000  0.23120000  1.0
  N  N142  1  0.94000000  0.54000000  0.17910000  1.0
  Cl  Cl143  1  0.61610000  0.14180000  0.76860000  1.0
  Cl  Cl144  1  0.38390000  0.85820000  0.23140000  1.0
  O  O145  1  0.91300000  0.92500000  0.99300000  1.0
  O  O146  1  0.93500000  0.04200000  0.94500000  1.0
  O  O147  1  0.09800000  0.87300000  0.98300000  1.0
  O  O148  1  0.90000000  0.02000000  0.07200000  1.0
  O  O149  1  0.85500000  0.79900000  0.04440000  1.0
  O  O150  1  0.11200000  0.71000000  0.02610000  1.0
  O  O151  1  0.69900000  0.94800000  0.86750000  1.0
  O  O152  1  0.70100000  0.96900000  0.99950000  1.0
  O  O153  1  0.89900000  0.82200000  0.91480000  1.0
  O  O154  1  0.72400000  0.11700000  0.92400000  1.0
  O  O155  1  0.91800000  0.98300000  0.83950000  1.0
  O  O156  1  0.16200000  0.89800000  0.82700000  1.0
  O  O157  1  0.14900000  0.73400000  0.89880000  1.0
  O  O158  1  0.67600000  0.08600000  0.10790000  1.0
  O  O159  1  0.70300000  0.23700000  0.03630000  1.0
  O  O160  1  0.83700000  0.91000000  0.14560000  1.0
  O  O161  1  0.91100000  0.17900000  0.86340000  1.0
  O  O162  1  0.08700000  0.07500000  0.00700000  1.0
  O  O163  1  0.06500000  0.95800000  0.05500000  1.0
  O  O164  1  0.90200000  0.12700000  0.01700000  1.0
  O  O165  1  0.10000000  0.98000000  0.92800000  1.0
  O  O166  1  0.14500000  0.20100000  0.95560000  1.0
  O  O167  1  0.88800000  0.29000000  0.97390000  1.0
  O  O168  1  0.30100000  0.05200000  0.13250000  1.0
  O  O169  1  0.29900000  0.03100000  0.00050000  1.0
  O  O170  1  0.10100000  0.17800000  0.08520000  1.0
  O  O171  1  0.27600000  0.88300000  0.07600000  1.0
  O  O172  1  0.08200000  0.01700000  0.16050000  1.0
  O  O173  1  0.83800000  0.10200000  0.17300000  1.0
  O  O174  1  0.85100000  0.26600000  0.10120000  1.0
  O  O175  1  0.32400000  0.91400000  0.89210000  1.0
  O  O176  1  0.29700000  0.76300000  0.96370000  1.0
  O  O177  1  0.16300000  0.09000000  0.85440000  1.0
  O  O178  1  0.08900000  0.82100000  0.13660000  1.0
