# generated using pymatgen
data_MnH2(CO2)2
_symmetry_space_group_name_H-M   'P 1'
_cell_length_a   10.24800000
_cell_length_b   11.71500000
_cell_length_c   15.15900000
_cell_angle_alpha   91.81000000
_cell_angle_beta   90.00000000
_cell_angle_gamma   90.00000000
_symmetry_Int_Tables_number   1
_chemical_formula_structural   MnH2(CO2)2
_chemical_formula_sum   'Mn12 H24 C24 O48'
_cell_volume   1819.01057103
_cell_formula_units_Z   12
loop_
 _symmetry_equiv_pos_site_id
 _symmetry_equiv_pos_as_xyz
  1  'x, y, z'
loop_
 _atom_site_type_symbol
 _atom_site_label
 _atom_site_symmetry_multiplicity
 _atom_site_fract_x
 _atom_site_fract_y
 _atom_site_fract_z
 _atom_site_occupancy
  Mn  Mn0  1  0.92306000  0.24309000  0.86786000  1.0
  Mn  Mn1  1  0.11206000  0.26155000  0.69035000  1.0
  Mn  Mn2  1  0.42306000  0.25691000  0.63214000  1.0
  Mn  Mn3  1  0.61206000  0.23845000  0.80965000  1.0
  Mn  Mn4  1  0.07694000  0.75691000  0.13214000  1.0
  Mn  Mn5  1  0.88794000  0.73845000  0.30965000  1.0
  Mn  Mn6  1  0.57694000  0.74309000  0.36786000  1.0
  Mn  Mn7  1  0.38794000  0.76155000  0.19035000  1.0
  Mn  Mn8  1  0.00000000  0.50000000  0.00000000  1.0
  Mn  Mn9  1  0.50000000  0.00000000  0.50000000  1.0
  Mn  Mn10  1  0.00000000  0.00000000  0.00000000  1.0
  Mn  Mn11  1  0.50000000  0.50000000  0.50000000  1.0
  H  H12  1  0.04290000  0.51930000  0.74260000  1.0
  H  H13  1  0.71090000  0.00020000  0.97380000  1.0
  H  H14  1  0.20720000  0.03220000  0.78200000  1.0
  H  H15  1  0.76460000  0.14830000  0.63240000  1.0
  H  H16  1  0.13810000  0.30230000  0.07860000  1.0
  H  H17  1  0.62530000  0.44690000  0.94580000  1.0
  H  H18  1  0.54290000  0.98070000  0.75740000  1.0
  H  H19  1  0.21090000  0.49980000  0.52620000  1.0
  H  H20  1  0.70720000  0.46780000  0.71800000  1.0
  H  H21  1  0.26460000  0.35170000  0.86760000  1.0
  H  H22  1  0.63810000  0.19770000  0.42140000  1.0
  H  H23  1  0.12530000  0.05310000  0.55420000  1.0
  H  H24  1  0.95710000  0.48070000  0.25740000  1.0
  H  H25  1  0.28910000  0.99980000  0.02620000  1.0
  H  H26  1  0.79280000  0.96780000  0.21800000  1.0
  H  H27  1  0.23540000  0.85170000  0.36760000  1.0
  H  H28  1  0.86190000  0.69770000  0.92140000  1.0
  H  H29  1  0.37470000  0.55310000  0.05420000  1.0
  H  H30  1  0.45710000  0.01930000  0.24260000  1.0
  H  H31  1  0.78910000  0.50020000  0.47380000  1.0
  H  H32  1  0.29280000  0.53220000  0.28200000  1.0
  H  H33  1  0.73540000  0.64830000  0.13240000  1.0
  H  H34  1  0.36190000  0.80230000  0.57860000  1.0
  H  H35  1  0.87470000  0.94690000  0.44580000  1.0
  C  C36  1  0.02420000  0.47960000  0.79410000  1.0
  C  C37  1  0.72760000  0.06250000  0.93780000  1.0
  C  C38  1  0.14100000  0.05620000  0.82130000  1.0
  C  C39  1  0.83190000  0.17650000  0.66910000  1.0
  C  C40  1  0.09090000  0.25820000  0.03670000  1.0
  C  C41  1  0.71420000  0.42760000  0.94170000  1.0
  C  C42  1  0.52420000  0.02040000  0.70590000  1.0
  C  C43  1  0.22760000  0.43750000  0.56220000  1.0
  C  C44  1  0.64100000  0.44380000  0.67870000  1.0
  C  C45  1  0.33190000  0.32350000  0.83090000  1.0
  C  C46  1  0.59090000  0.24180000  0.46330000  1.0
  C  C47  1  0.21420000  0.07240000  0.55830000  1.0
  C  C48  1  0.97580000  0.52040000  0.20590000  1.0
  C  C49  1  0.27240000  0.93750000  0.06220000  1.0
  C  C50  1  0.85900000  0.94380000  0.17870000  1.0
  C  C51  1  0.16810000  0.82350000  0.33090000  1.0
  C  C52  1  0.90910000  0.74180000  0.96330000  1.0
  C  C53  1  0.28580000  0.57240000  0.05830000  1.0
  C  C54  1  0.47580000  0.97960000  0.29410000  1.0
  C  C55  1  0.77240000  0.56250000  0.43780000  1.0
  C  C56  1  0.35900000  0.55620000  0.32130000  1.0
  C  C57  1  0.66810000  0.67650000  0.16910000  1.0
  C  C58  1  0.40910000  0.75820000  0.53670000  1.0
  C  C59  1  0.78580000  0.92760000  0.44170000  1.0
  O  O60  1  0.08450000  0.14960000  0.80496000  1.0
  O  O61  1  0.01180000  0.37240000  0.78529000  1.0
  O  O62  1  0.80450000  0.19390000  0.75047000  1.0
  O  O63  1  0.02540000  0.31250000  0.98059000  1.0
  O  O64  1  0.74460000  0.34400000  0.88975000  1.0
  O  O65  1  0.93860000  0.19330000  0.63431000  1.0
  O  O66  1  0.84460000  0.09800000  0.93512000  1.0
  O  O67  1  0.79120000  0.48520000  0.98700000  1.0
  O  O68  1  0.63380000  0.10180000  0.89787000  1.0
  O  O69  1  0.09890000  0.15460000  0.04190000  1.0
  O  O70  1  0.01440000  0.53650000  0.86213000  1.0
  O  O71  1  0.11820000  0.99400000  0.88280000  1.0
  O  O72  1  0.58450000  0.35040000  0.69504000  1.0
  O  O73  1  0.51180000  0.12760000  0.71471000  1.0
  O  O74  1  0.30450000  0.30610000  0.74953000  1.0
  O  O75  1  0.52540000  0.18750000  0.51941000  1.0
  O  O76  1  0.24460000  0.15600000  0.61025000  1.0
  O  O77  1  0.43860000  0.30670000  0.86569000  1.0
  O  O78  1  0.34460000  0.40200000  0.56488000  1.0
  O  O79  1  0.29120000  0.01480000  0.51300000  1.0
  O  O80  1  0.13380000  0.39820000  0.60213000  1.0
  O  O81  1  0.59890000  0.34540000  0.45810000  1.0
  O  O82  1  0.51440000  0.96350000  0.63787000  1.0
  O  O83  1  0.61820000  0.50600000  0.61720000  1.0
  O  O84  1  0.91550000  0.85040000  0.19504000  1.0
  O  O85  1  0.98820000  0.62760000  0.21471000  1.0
  O  O86  1  0.19550000  0.80610000  0.24953000  1.0
  O  O87  1  0.97460000  0.68750000  0.01941000  1.0
  O  O88  1  0.25540000  0.65600000  0.11025000  1.0
  O  O89  1  0.06140000  0.80670000  0.36569000  1.0
  O  O90  1  0.15540000  0.90200000  0.06488000  1.0
  O  O91  1  0.20880000  0.51480000  0.01300000  1.0
  O  O92  1  0.36620000  0.89820000  0.10213000  1.0
  O  O93  1  0.90110000  0.84540000  0.95810000  1.0
  O  O94  1  0.98560000  0.46350000  0.13787000  1.0
  O  O95  1  0.88180000  0.00600000  0.11720000  1.0
  O  O96  1  0.41550000  0.64960000  0.30496000  1.0
  O  O97  1  0.48820000  0.87240000  0.28529000  1.0
  O  O98  1  0.69550000  0.69390000  0.25047000  1.0
  O  O99  1  0.47460000  0.81250000  0.48059000  1.0
  O  O100  1  0.75540000  0.84400000  0.38975000  1.0
  O  O101  1  0.56140000  0.69330000  0.13431000  1.0
  O  O102  1  0.65540000  0.59800000  0.43512000  1.0
  O  O103  1  0.70880000  0.98520000  0.48700000  1.0
  O  O104  1  0.86620000  0.60180000  0.39787000  1.0
  O  O105  1  0.40110000  0.65460000  0.54190000  1.0
  O  O106  1  0.48560000  0.03650000  0.36213000  1.0
  O  O107  1  0.38180000  0.49400000  0.38280000  1.0
