# generated using pymatgen
data_MnH3(CO2)3
_symmetry_space_group_name_H-M   'P 1'
_cell_length_a   8.52200000
_cell_length_b   9.05400000
_cell_length_c   11.98770000
_cell_angle_alpha   90.00000000
_cell_angle_beta   90.00000000
_cell_angle_gamma   90.00000000
_symmetry_Int_Tables_number   1
_chemical_formula_structural   MnH3(CO2)3
_chemical_formula_sum   'Mn4 H12 C12 O24'
_cell_volume   924.94921029
_cell_formula_units_Z   4
loop_
 _symmetry_equiv_pos_site_id
 _symmetry_equiv_pos_as_xyz
  1  'x, y, z'
loop_
 _atom_site_type_symbol
 _atom_site_label
 _atom_site_symmetry_multiplicity
 _atom_site_fract_x
 _atom_site_fract_y
 _atom_site_fract_z
 _atom_site_occupancy
  Mn  Mn0  1  0.24866000  0.25000000  0.75000000  1.0
  Mn  Mn1  1  0.75134000  0.75000000  0.25000000  1.0
  Mn  Mn2  1  0.25134000  0.25000000  0.25000000  1.0
  Mn  Mn3  1  0.74866000  0.75000000  0.75000000  1.0
  H  H4  1  0.58280000  0.06430000  0.26800000  1.0
  H  H5  1  0.41720000  0.56430000  0.76800000  1.0
  H  H6  1  0.41720000  0.93570000  0.73200000  1.0
  H  H7  1  0.91720000  0.06430000  0.73200000  1.0
  H  H8  1  0.58280000  0.43570000  0.23200000  1.0
  H  H9  1  0.25000000  0.20740000  0.00000000  1.0
  H  H10  1  0.25000000  0.29260000  0.50000000  1.0
  H  H11  1  0.08280000  0.93570000  0.26800000  1.0
  H  H12  1  0.75000000  0.79260000  0.00000000  1.0
  H  H13  1  0.75000000  0.70740000  0.50000000  1.0
  H  H14  1  0.91720000  0.43570000  0.76800000  1.0
  H  H15  1  0.08280000  0.56430000  0.23200000  1.0
  C  C16  1  0.75000000  0.68990000  0.00000000  1.0
  C  C17  1  0.25000000  0.31010000  0.00000000  1.0
  C  C18  1  0.01933000  0.98457000  0.21679000  1.0
  C  C19  1  0.48067000  0.51543000  0.71679000  1.0
  C  C20  1  0.51933000  0.01543000  0.21679000  1.0
  C  C21  1  0.48067000  0.98457000  0.78321000  1.0
  C  C22  1  0.98067000  0.48457000  0.71679000  1.0
  C  C23  1  0.51933000  0.48457000  0.28321000  1.0
  C  C24  1  0.01933000  0.51543000  0.28321000  1.0
  C  C25  1  0.75000000  0.81010000  0.50000000  1.0
  C  C26  1  0.25000000  0.18990000  0.50000000  1.0
  C  C27  1  0.98067000  0.01543000  0.78321000  1.0
  O  O28  1  0.24400000  0.37113000  0.90761000  1.0
  O  O29  1  0.90415000  0.58391000  0.32009000  1.0
  O  O30  1  0.25600000  0.12887000  0.40761000  1.0
  O  O31  1  0.09585000  0.08391000  0.82009000  1.0
  O  O32  1  0.25600000  0.37113000  0.09239000  1.0
  O  O33  1  0.09585000  0.41609000  0.67991000  1.0
  O  O34  1  0.75600000  0.62887000  0.09239000  1.0
  O  O35  1  0.55691000  0.61228000  0.30868000  1.0
  O  O36  1  0.75600000  0.87113000  0.40761000  1.0
  O  O37  1  0.90415000  0.91609000  0.17991000  1.0
  O  O38  1  0.44309000  0.11228000  0.80868000  1.0
  O  O39  1  0.74400000  0.87113000  0.59239000  1.0
  O  O40  1  0.40415000  0.41609000  0.32009000  1.0
  O  O41  1  0.44309000  0.38772000  0.69132000  1.0
  O  O42  1  0.55691000  0.88772000  0.19132000  1.0
  O  O43  1  0.59585000  0.58391000  0.67991000  1.0
  O  O44  1  0.94309000  0.88772000  0.80868000  1.0
  O  O45  1  0.74400000  0.62887000  0.90761000  1.0
  O  O46  1  0.24400000  0.12887000  0.59239000  1.0
  O  O47  1  0.59585000  0.91609000  0.82009000  1.0
  O  O48  1  0.94309000  0.61228000  0.69132000  1.0
  O  O49  1  0.05691000  0.38772000  0.30868000  1.0
  O  O50  1  0.40415000  0.08391000  0.17991000  1.0
  O  O51  1  0.05691000  0.11228000  0.19132000  1.0
