# generated using pymatgen
data_DyH4(CO2)4
_symmetry_space_group_name_H-M   'P 1'
_cell_length_a   6.68370000
_cell_length_b   18.46840000
_cell_length_c   8.47590000
_cell_angle_alpha   90.00000000
_cell_angle_beta   90.00000000
_cell_angle_gamma   90.00000000
_symmetry_Int_Tables_number   1
_chemical_formula_structural   DyH4(CO2)4
_chemical_formula_sum   'Dy4 H16 C16 O32'
_cell_volume   1046.24174557
_cell_formula_units_Z   4
loop_
 _symmetry_equiv_pos_site_id
 _symmetry_equiv_pos_as_xyz
  1  'x, y, z'
loop_
 _atom_site_type_symbol
 _atom_site_label
 _atom_site_symmetry_multiplicity
 _atom_site_fract_x
 _atom_site_fract_y
 _atom_site_fract_z
 _atom_site_occupancy
  Dy  Dy0  1  0.50000000  0.85736000  0.25000000  1.0
  Dy  Dy1  1  0.00000000  0.35736000  0.25000000  1.0
  Dy  Dy2  1  0.50000000  0.14264000  0.75000000  1.0
  Dy  Dy3  1  0.00000000  0.64264000  0.75000000  1.0
  H  H4  1  0.71640000  0.71890000  0.04450000  1.0
  H  H5  1  0.21640000  0.21890000  0.04450000  1.0
  H  H6  1  0.28360000  0.28110000  0.54450000  1.0
  H  H7  1  0.78360000  0.78110000  0.54450000  1.0
  H  H8  1  0.28360000  0.71890000  0.45550000  1.0
  H  H9  1  0.78360000  0.21890000  0.45550000  1.0
  H  H10  1  0.71640000  0.28110000  0.95550000  1.0
  H  H11  1  0.21640000  0.78110000  0.95550000  1.0
  H  H12  1  0.28680000  0.00000000  0.00000000  1.0
  H  H13  1  0.78680000  0.50000000  0.00000000  1.0
  H  H14  1  0.71320000  0.00000000  0.50000000  1.0
  H  H15  1  0.21320000  0.50000000  0.50000000  1.0
  H  H16  1  0.00000000  0.82490000  0.25000000  1.0
  H  H17  1  0.50000000  0.32490000  0.25000000  1.0
  H  H18  1  0.00000000  0.17510000  0.75000000  1.0
  H  H19  1  0.50000000  0.67510000  0.75000000  1.0
  C  C20  1  0.73560000  0.75720000  0.97490000  1.0
  C  C21  1  0.23560000  0.25720000  0.97490000  1.0
  C  C22  1  0.26440000  0.24280000  0.47490000  1.0
  C  C23  1  0.76440000  0.74280000  0.47490000  1.0
  C  C24  1  0.26440000  0.75720000  0.52510000  1.0
  C  C25  1  0.76440000  0.25720000  0.52510000  1.0
  C  C26  1  0.73560000  0.24280000  0.02510000  1.0
  C  C27  1  0.23560000  0.74280000  0.02510000  1.0
  C  C28  1  0.42600000  0.00000000  0.00000000  1.0
  C  C29  1  0.92600000  0.50000000  0.00000000  1.0
  C  C30  1  0.57400000  0.00000000  0.50000000  1.0
  C  C31  1  0.07400000  0.50000000  0.50000000  1.0
  C  C32  1  0.00000000  0.87530000  0.25000000  1.0
  C  C33  1  0.50000000  0.37530000  0.25000000  1.0
  C  C34  1  0.00000000  0.12470000  0.75000000  1.0
  C  C35  1  0.50000000  0.62470000  0.75000000  1.0
  O  O36  1  0.51210000  0.95002000  0.06930000  1.0
  O  O37  1  0.83630000  0.90585000  0.27160000  1.0
  O  O38  1  0.82020000  0.74263000  0.84710000  1.0
  O  O39  1  0.67510000  0.81686000  0.01780000  1.0
  O  O40  1  0.01210000  0.45002000  0.06930000  1.0
  O  O41  1  0.33630000  0.40585000  0.27160000  1.0
  O  O42  1  0.32020000  0.24263000  0.84710000  1.0
  O  O43  1  0.17510000  0.31686000  0.01780000  1.0
  O  O44  1  0.48790000  0.04998000  0.56930000  1.0
  O  O45  1  0.16370000  0.09415000  0.77160000  1.0
  O  O46  1  0.17980000  0.25737000  0.34710000  1.0
  O  O47  1  0.32490000  0.18314000  0.51780000  1.0
  O  O48  1  0.98790000  0.54998000  0.56930000  1.0
  O  O49  1  0.66370000  0.59415000  0.77160000  1.0
  O  O50  1  0.67980000  0.75737000  0.34710000  1.0
  O  O51  1  0.82490000  0.68314000  0.51780000  1.0
  O  O52  1  0.48790000  0.95002000  0.43070000  1.0
  O  O53  1  0.16370000  0.90585000  0.22840000  1.0
  O  O54  1  0.17980000  0.74263000  0.65290000  1.0
  O  O55  1  0.32490000  0.81686000  0.48220000  1.0
  O  O56  1  0.98790000  0.45002000  0.43070000  1.0
  O  O57  1  0.66370000  0.40585000  0.22840000  1.0
  O  O58  1  0.67980000  0.24263000  0.65290000  1.0
  O  O59  1  0.82490000  0.31686000  0.48220000  1.0
  O  O60  1  0.51210000  0.04998000  0.93070000  1.0
  O  O61  1  0.83630000  0.09415000  0.72840000  1.0
  O  O62  1  0.82020000  0.25737000  0.15290000  1.0
  O  O63  1  0.67510000  0.18314000  0.98220000  1.0
  O  O64  1  0.01210000  0.54998000  0.93070000  1.0
  O  O65  1  0.33630000  0.59415000  0.72840000  1.0
  O  O66  1  0.32020000  0.75737000  0.15290000  1.0
  O  O67  1  0.17510000  0.68314000  0.98220000  1.0
