# generated using pymatgen
data_U3P4H6(C7O8)2
_symmetry_space_group_name_H-M   'P 1'
_cell_length_a   14.80080000
_cell_length_b   12.25430000
_cell_length_c   30.22430000
_cell_angle_alpha   90.00000000
_cell_angle_beta   90.99100000
_cell_angle_gamma   90.00000000
_symmetry_Int_Tables_number   1
_chemical_formula_structural   U3P4H6(C7O8)2
_chemical_formula_sum   'U12 P16 H24 C56 O64'
_cell_volume   5481.06540939
_cell_formula_units_Z   4
loop_
 _symmetry_equiv_pos_site_id
 _symmetry_equiv_pos_as_xyz
  1  'x, y, z'
loop_
 _atom_site_type_symbol
 _atom_site_label
 _atom_site_symmetry_multiplicity
 _atom_site_fract_x
 _atom_site_fract_y
 _atom_site_fract_z
 _atom_site_occupancy
  U  U0  1  0.45495000  0.67133000  0.23476000  1.0
  U  U1  1  0.53319000  0.35956000  0.07635000  1.0
  U  U2  1  0.74841000  0.42695000  0.24292000  1.0
  U  U3  1  0.04505000  0.17133000  0.26524000  1.0
  U  U4  1  0.96681000  0.85956000  0.42365000  1.0
  U  U5  1  0.75159000  0.92695000  0.25708000  1.0
  U  U6  1  0.54505000  0.32867000  0.76524000  1.0
  U  U7  1  0.46681000  0.64044000  0.92365000  1.0
  U  U8  1  0.25159000  0.57305000  0.75708000  1.0
  U  U9  1  0.95495000  0.82867000  0.73476000  1.0
  U  U10  1  0.03319000  0.14044000  0.57635000  1.0
  U  U11  1  0.24841000  0.07305000  0.74291000  1.0
  P  P12  1  0.98000000  0.89560000  0.30250000  1.0
  P  P13  1  0.97640000  0.44840000  0.29164000  1.0
  P  P14  1  0.69480000  0.68430000  0.19599000  1.0
  P  P15  1  0.47520000  0.63590000  0.04756000  1.0
  P  P16  1  0.52000000  0.39560000  0.19750000  1.0
  P  P17  1  0.52360000  0.94840000  0.20836000  1.0
  P  P18  1  0.80520000  0.18430000  0.30401000  1.0
  P  P19  1  0.02480000  0.13590000  0.45244000  1.0
  P  P20  1  0.02000000  0.10440000  0.69750000  1.0
  P  P21  1  0.02360000  0.55160000  0.70836000  1.0
  P  P22  1  0.30520000  0.31570000  0.80401000  1.0
  P  P23  1  0.52480000  0.36410000  0.95244000  1.0
  P  P24  1  0.48000000  0.60440000  0.80250000  1.0
  P  P25  1  0.47640000  0.05160000  0.79164000  1.0
  P  P26  1  0.19480000  0.81570000  0.69599000  1.0
  P  P27  1  0.97520000  0.86410000  0.54756000  1.0
  H  H28  1  0.16030000  0.83640000  0.27490000  1.0
  H  H29  1  0.93240000  0.67100000  0.29990000  1.0
  H  H30  1  0.15770000  0.50840000  0.26930000  1.0
  H  H31  1  0.77200000  0.82620000  0.13020000  1.0
  H  H32  1  0.56350000  0.61760000  0.13220000  1.0
  H  H33  1  0.61060000  0.78430000  0.02170000  1.0
  H  H34  1  0.33970000  0.33640000  0.22510000  1.0
  H  H35  1  0.56760000  0.17100000  0.20010000  1.0
  H  H36  1  0.34230000  0.00840000  0.23070000  1.0
  H  H37  1  0.72800000  0.32620000  0.36980000  1.0
  H  H38  1  0.93650000  0.11760000  0.36780000  1.0
  H  H39  1  0.88940000  0.28430000  0.47830000  1.0
  H  H40  1  0.83970000  0.16360000  0.72510000  1.0
  H  H41  1  0.06760000  0.32900000  0.70010000  1.0
  H  H42  1  0.84230000  0.49160000  0.73070000  1.0
  H  H43  1  0.22800000  0.17380000  0.86980000  1.0
  H  H44  1  0.43650000  0.38240000  0.86780000  1.0
  H  H45  1  0.38940000  0.21570000  0.97830000  1.0
  H  H46  1  0.66030000  0.66360000  0.77490000  1.0
  H  H47  1  0.43240000  0.82900000  0.79990000  1.0
  H  H48  1  0.65770000  0.99160000  0.76930000  1.0
  H  H49  1  0.27200000  0.67380000  0.63020000  1.0
  H  H50  1  0.06350000  0.88240000  0.63220000  1.0
  H  H51  1  0.11060000  0.71570000  0.52170000  1.0
  C  C52  1  0.26980000  0.67090000  0.25710000  1.0
  C  C53  1  0.17280000  0.67260000  0.27020000  1.0
  C  C54  1  0.12930000  0.77090000  0.27780000  1.0
  C  C55  1  0.03940000  0.77080000  0.28960000  1.0
  C  C56  1  0.99330000  0.67160000  0.29280000  1.0
  C  C57  1  0.03860000  0.57330000  0.28540000  1.0
  C  C58  1  0.12750000  0.57380000  0.27420000  1.0
  C  C59  1  0.76000000  0.89900000  0.04890000  1.0
  C  C60  1  0.69830000  0.81740000  0.07250000  1.0
  C  C61  1  0.72260000  0.79250000  0.11650000  1.0
  C  C62  1  0.67050000  0.71550000  0.13950000  1.0
  C  C63  1  0.59800000  0.66870000  0.11720000  1.0
  C  C64  1  0.57330000  0.69370000  0.07340000  1.0
  C  C65  1  0.62460000  0.76740000  0.05110000  1.0
  C  C66  1  0.23020000  0.17090000  0.24290000  1.0
  C  C67  1  0.32720000  0.17260000  0.22980000  1.0
  C  C68  1  0.37070000  0.27090000  0.22220000  1.0
  C  C69  1  0.46060000  0.27080000  0.21040000  1.0
  C  C70  1  0.50670000  0.17160000  0.20720000  1.0
  C  C71  1  0.46140000  0.07330000  0.21460000  1.0
  C  C72  1  0.37250000  0.07380000  0.22580000  1.0
  C  C73  1  0.74000000  0.39900000  0.45110000  1.0
  C  C74  1  0.80170000  0.31740000  0.42750000  1.0
  C  C75  1  0.77740000  0.29250000  0.38350000  1.0
  C  C76  1  0.82950000  0.21550000  0.36050000  1.0
  C  C77  1  0.90200000  0.16870000  0.38280000  1.0
  C  C78  1  0.92670000  0.19370000  0.42660000  1.0
  C  C79  1  0.87540000  0.26740000  0.44890000  1.0
  C  C80  1  0.73020000  0.32910000  0.74290000  1.0
  C  C81  1  0.82720000  0.32740000  0.72980000  1.0
  C  C82  1  0.87070000  0.22910000  0.72220000  1.0
  C  C83  1  0.96060000  0.22920000  0.71040000  1.0
  C  C84  1  0.00670000  0.32840000  0.70720000  1.0
  C  C85  1  0.96140000  0.42670000  0.71460000  1.0
  C  C86  1  0.87250000  0.42620000  0.72580000  1.0
  C  C87  1  0.24000000  0.10100000  0.95110000  1.0
  C  C88  1  0.30170000  0.18260000  0.92750000  1.0
  C  C89  1  0.27740000  0.20750000  0.88350000  1.0
  C  C90  1  0.32950000  0.28450000  0.86050000  1.0
  C  C91  1  0.40200000  0.33130000  0.88280000  1.0
  C  C92  1  0.42670000  0.30630000  0.92660000  1.0
  C  C93  1  0.37540000  0.23260000  0.94890000  1.0
  C  C94  1  0.76980000  0.82910000  0.75710000  1.0
  C  C95  1  0.67280000  0.82740000  0.77020000  1.0
  C  C96  1  0.62930000  0.72910000  0.77780000  1.0
  C  C97  1  0.53940000  0.72920000  0.78960000  1.0
  C  C98  1  0.49330000  0.82840000  0.79280000  1.0
  C  C99  1  0.53860000  0.92670000  0.78540000  1.0
  C  C100  1  0.62750000  0.92620000  0.77420000  1.0
  C  C101  1  0.26000000  0.60100000  0.54890000  1.0
  C  C102  1  0.19830000  0.68260000  0.57250000  1.0
  C  C103  1  0.22260000  0.70750000  0.61650000  1.0
  C  C104  1  0.17050000  0.78450000  0.63950000  1.0
  C  C105  1  0.09800000  0.83130000  0.61720000  1.0
  C  C106  1  0.07330000  0.80630000  0.57340000  1.0
  C  C107  1  0.12460000  0.73260000  0.55110000  1.0
  O  O108  1  0.60470000  0.67710000  0.21850000  1.0
  O  O109  1  0.30980000  0.58340000  0.24950000  1.0
  O  O110  1  0.31200000  0.76160000  0.25410000  1.0
  O  O111  1  0.74590000  0.57560000  0.19780000  1.0
  O  O112  1  0.75340000  0.77510000  0.21370000  1.0
  O  O113  1  0.83400000  0.92000000  0.06630000  1.0
  O  O114  1  0.72800000  0.93600000  0.01150000  1.0
  O  O115  1  0.48870000  0.64100000  0.99870000  1.0
  O  O116  1  0.39340000  0.70900000  0.05960000  1.0
  O  O117  1  0.46060000  0.52480000  0.06620000  1.0
  O  O118  1  0.01950000  0.98700000  0.27610000  1.0
  O  O119  1  0.99080000  0.91430000  0.35210000  1.0
  O  O120  1  0.88050000  0.87350000  0.29150000  1.0
  O  O121  1  0.87820000  0.47410000  0.28060000  1.0
  O  O122  1  0.98310000  0.41700000  0.34100000  1.0
  O  O123  1  0.02140000  0.36080000  0.26490000  1.0
  O  O124  1  0.89530000  0.17710000  0.28150000  1.0
  O  O125  1  0.19020000  0.08340000  0.25050000  1.0
  O  O126  1  0.18800000  0.26160000  0.24590000  1.0
  O  O127  1  0.75410000  0.07560000  0.30220000  1.0
  O  O128  1  0.74660000  0.27510000  0.28630000  1.0
  O  O129  1  0.66600000  0.42000000  0.43370000  1.0
  O  O130  1  0.77200000  0.43600000  0.48850000  1.0
  O  O131  1  0.01130000  0.14100000  0.50130000  1.0
  O  O132  1  0.10660000  0.20900000  0.44040000  1.0
  O  O133  1  0.03940000  0.02480000  0.43380000  1.0
  O  O134  1  0.48050000  0.48700000  0.22390000  1.0
  O  O135  1  0.50920000  0.41430000  0.14790000  1.0
  O  O136  1  0.61950000  0.37350000  0.20850000  1.0
  O  O137  1  0.62180000  0.97410000  0.21940000  1.0
  O  O138  1  0.51690000  0.91700000  0.15900000  1.0
  O  O139  1  0.47860000  0.86080000  0.23510000  1.0
  O  O140  1  0.39530000  0.32290000  0.78150000  1.0
  O  O141  1  0.69020000  0.41660000  0.75050000  1.0
  O  O142  1  0.68800000  0.23840000  0.74590000  1.0
  O  O143  1  0.25410000  0.42440000  0.80220000  1.0
  O  O144  1  0.24660000  0.22490000  0.78630000  1.0
  O  O145  1  0.16600000  0.08000000  0.93370000  1.0
  O  O146  1  0.27200000  0.06400000  0.98850000  1.0
  O  O147  1  0.51130000  0.35900000  0.00130000  1.0
  O  O148  1  0.60660000  0.29100000  0.94040000  1.0
  O  O149  1  0.53940000  0.47520000  0.93380000  1.0
  O  O150  1  0.98050000  0.01300000  0.72390000  1.0
  O  O151  1  0.00920000  0.08570000  0.64790000  1.0
  O  O152  1  0.11950000  0.12650000  0.70850000  1.0
  O  O153  1  0.12180000  0.52590000  0.71940000  1.0
  O  O154  1  0.01690000  0.58300000  0.65900000  1.0
  O  O155  1  0.97860000  0.63920000  0.73510000  1.0
  O  O156  1  0.10470000  0.82290000  0.71850000  1.0
  O  O157  1  0.80980000  0.91660000  0.74950000  1.0
  O  O158  1  0.81200000  0.73840000  0.75410000  1.0
  O  O159  1  0.24590000  0.92440000  0.69780000  1.0
  O  O160  1  0.25340000  0.72490000  0.71370000  1.0
  O  O161  1  0.33400000  0.58000000  0.56630000  1.0
  O  O162  1  0.22800000  0.56400000  0.51150000  1.0
  O  O163  1  0.98870000  0.85900000  0.49870000  1.0
  O  O164  1  0.89340000  0.79100000  0.55960000  1.0
  O  O165  1  0.96060000  0.97520000  0.56620000  1.0
  O  O166  1  0.51950000  0.51300000  0.77610000  1.0
  O  O167  1  0.49080000  0.58570000  0.85210000  1.0
  O  O168  1  0.38050000  0.62650000  0.79150000  1.0
  O  O169  1  0.37820000  0.02590000  0.78060000  1.0
  O  O170  1  0.48310000  0.08300000  0.84100000  1.0
  O  O171  1  0.52140000  0.13920000  0.76490000  1.0
