# generated using pymatgen
data_V5P4H4(CO8)2
_symmetry_space_group_name_H-M   'P 1'
_cell_length_a   13.51200000
_cell_length_b   16.19400000
_cell_length_c   4.67700000
_cell_angle_alpha   90.00000000
_cell_angle_beta   90.00000000
_cell_angle_gamma   90.00000000
_symmetry_Int_Tables_number   1
_chemical_formula_structural   V5P4H4(CO8)2
_chemical_formula_sum   'V10 P8 H8 C4 O32'
_cell_volume   1023.38993506
_cell_formula_units_Z   2
loop_
 _symmetry_equiv_pos_site_id
 _symmetry_equiv_pos_as_xyz
  1  'x, y, z'
loop_
 _atom_site_type_symbol
 _atom_site_label
 _atom_site_symmetry_multiplicity
 _atom_site_fract_x
 _atom_site_fract_y
 _atom_site_fract_z
 _atom_site_occupancy
  V  V0  1  0.51110000  0.48510000  0.97840000  1.0
  V  V1  1  0.98890000  0.01490000  0.97840000  1.0
  V  V2  1  0.48890000  0.98510000  0.02160000  1.0
  V  V3  1  0.01110000  0.51490000  0.02160000  1.0
  V  V4  1  0.48890000  0.51490000  0.02160000  1.0
  V  V5  1  0.01110000  0.98510000  0.02160000  1.0
  V  V6  1  0.51110000  0.01490000  0.97840000  1.0
  V  V7  1  0.98890000  0.48510000  0.97840000  1.0
  V  V8  1  0.75000000  0.75000000  0.28530000  1.0
  V  V9  1  0.25000000  0.25000000  0.71470000  1.0
  P  P10  1  0.63620000  0.58030000  0.49300000  1.0
  P  P11  1  0.86380000  0.91970000  0.49300000  1.0
  P  P12  1  0.36380000  0.08030000  0.50700000  1.0
  P  P13  1  0.13620000  0.41970000  0.50700000  1.0
  P  P14  1  0.36380000  0.41970000  0.50700000  1.0
  P  P15  1  0.13620000  0.08030000  0.50700000  1.0
  P  P16  1  0.63620000  0.91970000  0.49300000  1.0
  P  P17  1  0.86380000  0.58030000  0.49300000  1.0
  H  H18  1  0.75000000  0.49260000  0.69300000  1.0
  H  H19  1  0.75000000  0.57670000  0.85630000  1.0
  H  H20  1  0.75000000  0.00740000  0.69300000  1.0
  H  H21  1  0.75000000  0.92330000  0.85630000  1.0
  H  H22  1  0.25000000  0.99260000  0.30700000  1.0
  H  H23  1  0.25000000  0.07670000  0.14370000  1.0
  H  H24  1  0.25000000  0.50740000  0.30700000  1.0
  H  H25  1  0.25000000  0.42330000  0.14370000  1.0
  C  C26  1  0.75000000  0.55200000  0.66740000  1.0
  C  C27  1  0.75000000  0.94800000  0.66740000  1.0
  C  C28  1  0.25000000  0.05200000  0.33260000  1.0
  C  C29  1  0.25000000  0.44800000  0.33260000  1.0
  O  O30  1  0.55350000  0.57900000  0.71600000  1.0
  O  O31  1  0.61750000  0.51930000  0.25180000  1.0
  O  O32  1  0.64680000  0.66920000  0.38530000  1.0
  O  O33  1  0.42980000  0.59220000  0.17510000  1.0
  O  O34  1  0.94650000  0.92100000  0.71600000  1.0
  O  O35  1  0.88250000  0.98070000  0.25180000  1.0
  O  O36  1  0.85320000  0.83080000  0.38530000  1.0
  O  O37  1  0.07020000  0.90780000  0.17510000  1.0
  O  O38  1  0.44650000  0.07900000  0.28400000  1.0
  O  O39  1  0.38250000  0.01930000  0.74820000  1.0
  O  O40  1  0.35320000  0.16920000  0.61470000  1.0
  O  O41  1  0.57020000  0.09220000  0.82490000  1.0
  O  O42  1  0.05350000  0.42100000  0.28400000  1.0
  O  O43  1  0.11750000  0.48070000  0.74820000  1.0
  O  O44  1  0.14680000  0.33080000  0.61470000  1.0
  O  O45  1  0.92980000  0.40780000  0.82490000  1.0
  O  O46  1  0.44650000  0.42100000  0.28400000  1.0
  O  O47  1  0.38250000  0.48070000  0.74820000  1.0
  O  O48  1  0.35320000  0.33080000  0.61470000  1.0
  O  O49  1  0.57020000  0.40780000  0.82490000  1.0
  O  O50  1  0.05350000  0.07900000  0.28400000  1.0
  O  O51  1  0.11750000  0.01930000  0.74820000  1.0
  O  O52  1  0.14680000  0.16920000  0.61470000  1.0
  O  O53  1  0.92980000  0.09220000  0.82490000  1.0
  O  O54  1  0.55350000  0.92100000  0.71600000  1.0
  O  O55  1  0.61750000  0.98070000  0.25180000  1.0
  O  O56  1  0.64680000  0.83080000  0.38530000  1.0
  O  O57  1  0.42980000  0.90780000  0.17510000  1.0
  O  O58  1  0.94650000  0.57900000  0.71600000  1.0
  O  O59  1  0.88250000  0.51930000  0.25180000  1.0
  O  O60  1  0.85320000  0.66920000  0.38530000  1.0
  O  O61  1  0.07020000  0.59220000  0.17510000  1.0
