# generated using pymatgen
data_Ga3H14(C8O5)3
_symmetry_space_group_name_H-M   'P 1'
_cell_length_a   21.18690000
_cell_length_b   21.18690000
_cell_length_c   6.74230000
_cell_angle_alpha   90.00000000
_cell_angle_beta   90.00000000
_cell_angle_gamma   59.96600000
_symmetry_Int_Tables_number   1
_chemical_formula_structural   Ga3H14(C8O5)3
_chemical_formula_sum   'Ga6 H28 C48 O30'
_cell_volume   2620.14088374
_cell_formula_units_Z   2
loop_
 _symmetry_equiv_pos_site_id
 _symmetry_equiv_pos_as_xyz
  1  'x, y, z'
loop_
 _atom_site_type_symbol
 _atom_site_label
 _atom_site_symmetry_multiplicity
 _atom_site_fract_x
 _atom_site_fract_y
 _atom_site_fract_z
 _atom_site_occupancy
  Ga  Ga0  1  0.50000000  0.00000000  0.00000000  1.0
  Ga  Ga1  1  0.50000000  0.00000000  0.50000000  1.0
  Ga  Ga2  1  0.00000000  0.50000000  0.50000000  1.0
  Ga  Ga3  1  0.00000000  0.50000000  0.00000000  1.0
  Ga  Ga4  1  0.00000000  0.00000000  0.00000000  1.0
  Ga  Ga5  1  0.00000000  0.00000000  0.50000000  1.0
  H  H6  1  0.32147000  0.20907000  0.94430000  1.0
  H  H7  1  0.67752000  0.02892000  0.94430000  1.0
  H  H8  1  0.79232000  0.02380000  0.94430000  1.0
  H  H9  1  0.50000000  0.90680000  0.25000000  1.0
  H  H10  1  0.67853000  0.79093000  0.44430000  1.0
  H  H11  1  0.32248000  0.97108000  0.44430000  1.0
  H  H12  1  0.20768000  0.97620000  0.44430000  1.0
  H  H13  1  0.50000000  0.09320000  0.75000000  1.0
  H  H14  1  0.20907000  0.32147000  0.55570000  1.0
  H  H15  1  0.02892000  0.67752000  0.55570000  1.0
  H  H16  1  0.02380000  0.79232000  0.55570000  1.0
  H  H17  1  0.90680000  0.50000000  0.25000000  1.0
  H  H18  1  0.79093000  0.67853000  0.05570000  1.0
  H  H19  1  0.97108000  0.32248000  0.05570000  1.0
  H  H20  1  0.97620000  0.20768000  0.05570000  1.0
  H  H21  1  0.09320000  0.50000000  0.75000000  1.0
  H  H22  1  0.67853000  0.79093000  0.05570000  1.0
  H  H23  1  0.32248000  0.97108000  0.05570000  1.0
  H  H24  1  0.20768000  0.97620000  0.05570000  1.0
  H  H25  1  0.32147000  0.20907000  0.55570000  1.0
  H  H26  1  0.67752000  0.02892000  0.55570000  1.0
  H  H27  1  0.79232000  0.02380000  0.55570000  1.0
  H  H28  1  0.79093000  0.67853000  0.44430000  1.0
  H  H29  1  0.97108000  0.32248000  0.44430000  1.0
  H  H30  1  0.97620000  0.20768000  0.44430000  1.0
  H  H31  1  0.20907000  0.32147000  0.94430000  1.0
  H  H32  1  0.02892000  0.67752000  0.94430000  1.0
  H  H33  1  0.02380000  0.79232000  0.94430000  1.0
  C  C34  1  0.29833000  0.23221000  0.07018000  1.0
  C  C35  1  0.70115000  0.02787000  0.07018000  1.0
  C  C36  1  0.76868000  0.02486000  0.07018000  1.0
  C  C37  1  0.70167000  0.76779000  0.57018000  1.0
  C  C38  1  0.29885000  0.97213000  0.57018000  1.0
  C  C39  1  0.23132000  0.97514000  0.57018000  1.0
  C  C40  1  0.23221000  0.29833000  0.42982000  1.0
  C  C41  1  0.02787000  0.70115000  0.42982000  1.0
  C  C42  1  0.02486000  0.76868000  0.42982000  1.0
  C  C43  1  0.76779000  0.70167000  0.92982000  1.0
  C  C44  1  0.97213000  0.29885000  0.92982000  1.0
  C  C45  1  0.97514000  0.23132000  0.92982000  1.0
  C  C46  1  0.70167000  0.76779000  0.92982000  1.0
  C  C47  1  0.29885000  0.97213000  0.92982000  1.0
  C  C48  1  0.23132000  0.97514000  0.92982000  1.0
  C  C49  1  0.29833000  0.23221000  0.42982000  1.0
  C  C50  1  0.70115000  0.02787000  0.42982000  1.0
  C  C51  1  0.76868000  0.02486000  0.42982000  1.0
  C  C52  1  0.76779000  0.70167000  0.57018000  1.0
  C  C53  1  0.97213000  0.29885000  0.57018000  1.0
  C  C54  1  0.97514000  0.23132000  0.57018000  1.0
  C  C55  1  0.23221000  0.29833000  0.07018000  1.0
  C  C56  1  0.02787000  0.70115000  0.07018000  1.0
  C  C57  1  0.02486000  0.76868000  0.07018000  1.0
  C  C58  1  0.40222000  0.12832000  0.25000000  1.0
  C  C59  1  0.33138000  0.19916000  0.25000000  1.0
  C  C60  1  0.59502000  0.03260000  0.25000000  1.0
  C  C61  1  0.66739000  0.02937000  0.25000000  1.0
  C  C62  1  0.80245000  0.02335000  0.25000000  1.0
  C  C63  1  0.87481000  0.02013000  0.25000000  1.0
  C  C64  1  0.59778000  0.87168000  0.75000000  1.0
  C  C65  1  0.66862000  0.80084000  0.75000000  1.0
  C  C66  1  0.40498000  0.96740000  0.75000000  1.0
  C  C67  1  0.33261000  0.97063000  0.75000000  1.0
  C  C68  1  0.19755000  0.97665000  0.75000000  1.0
  C  C69  1  0.12519000  0.97987000  0.75000000  1.0
  C  C70  1  0.12832000  0.40222000  0.25000000  1.0
  C  C71  1  0.19916000  0.33138000  0.25000000  1.0
  C  C72  1  0.03260000  0.59502000  0.25000000  1.0
  C  C73  1  0.02937000  0.66739000  0.25000000  1.0
  C  C74  1  0.02335000  0.80245000  0.25000000  1.0
  C  C75  1  0.02013000  0.87481000  0.25000000  1.0
  C  C76  1  0.87168000  0.59778000  0.75000000  1.0
  C  C77  1  0.80084000  0.66862000  0.75000000  1.0
  C  C78  1  0.96740000  0.40498000  0.75000000  1.0
  C  C79  1  0.97063000  0.33261000  0.75000000  1.0
  C  C80  1  0.97665000  0.19755000  0.75000000  1.0
  C  C81  1  0.97987000  0.12519000  0.75000000  1.0
  O  O82  1  0.43173000  0.09881000  0.08944000  1.0
  O  O83  1  0.56488000  0.03394000  0.08944000  1.0
  O  O84  1  0.90496000  0.01878000  0.08944000  1.0
  O  O85  1  0.56827000  0.90119000  0.58944000  1.0
  O  O86  1  0.43512000  0.96606000  0.58944000  1.0
  O  O87  1  0.09504000  0.98122000  0.58944000  1.0
  O  O88  1  0.09881000  0.43173000  0.41056000  1.0
  O  O89  1  0.03394000  0.56488000  0.41056000  1.0
  O  O90  1  0.01878000  0.90496000  0.41056000  1.0
  O  O91  1  0.90119000  0.56827000  0.91056000  1.0
  O  O92  1  0.96606000  0.43512000  0.91056000  1.0
  O  O93  1  0.98122000  0.09504000  0.91056000  1.0
  O  O94  1  0.56827000  0.90119000  0.91056000  1.0
  O  O95  1  0.43512000  0.96606000  0.91056000  1.0
  O  O96  1  0.09504000  0.98122000  0.91056000  1.0
  O  O97  1  0.43173000  0.09881000  0.41056000  1.0
  O  O98  1  0.56488000  0.03394000  0.41056000  1.0
  O  O99  1  0.90496000  0.01878000  0.41056000  1.0
  O  O100  1  0.90119000  0.56827000  0.58944000  1.0
  O  O101  1  0.96606000  0.43512000  0.58944000  1.0
  O  O102  1  0.98122000  0.09504000  0.58944000  1.0
  O  O103  1  0.09881000  0.43173000  0.08944000  1.0
  O  O104  1  0.03394000  0.56488000  0.08944000  1.0
  O  O105  1  0.01878000  0.90496000  0.08944000  1.0
  O  O106  1  0.50000000  0.95400000  0.25000000  1.0
  O  O107  1  0.50000000  0.04600000  0.75000000  1.0
  O  O108  1  0.95400000  0.50000000  0.25000000  1.0
  O  O109  1  0.04600000  0.50000000  0.75000000  1.0
  O  O110  1  0.02563000  0.02563000  0.25000000  1.0
  O  O111  1  0.97437000  0.97437000  0.75000000  1.0
