# generated using pymatgen
data_AgH8(CN)2
_symmetry_space_group_name_H-M   'P 1'
_cell_length_a   20.18300000
_cell_length_b   19.60700000
_cell_length_c   5.97780000
_cell_angle_alpha   90.00000000
_cell_angle_beta   113.92000000
_cell_angle_gamma   90.00000000
_symmetry_Int_Tables_number   1
_chemical_formula_structural   AgH8(CN)2
_chemical_formula_sum   'Ag16 H128 C32 N32'
_cell_volume   2162.40923399
_cell_formula_units_Z   16
loop_
 _symmetry_equiv_pos_site_id
 _symmetry_equiv_pos_as_xyz
  1  'x, y, z'
loop_
 _atom_site_type_symbol
 _atom_site_label
 _atom_site_symmetry_multiplicity
 _atom_site_fract_x
 _atom_site_fract_y
 _atom_site_fract_z
 _atom_site_occupancy
  Ag  Ag0  1  0.50000000  0.00000000  0.00000000  1.0
  Ag  Ag1  1  0.00000000  0.50000000  0.00000000  1.0
  Ag  Ag2  1  0.50000000  0.00000000  0.50000000  1.0
  Ag  Ag3  1  0.00000000  0.50000000  0.50000000  1.0
  Ag  Ag4  1  0.75000000  0.25000000  0.00000000  1.0
  Ag  Ag5  1  0.25000000  0.25000000  0.50000000  1.0
  Ag  Ag6  1  0.25000000  0.75000000  0.00000000  1.0
  Ag  Ag7  1  0.75000000  0.75000000  0.50000000  1.0
  Ag  Ag8  1  0.75000000  0.25000000  0.50000000  1.0
  Ag  Ag9  1  0.25000000  0.25000000  0.00000000  1.0
  Ag  Ag10  1  0.25000000  0.75000000  0.50000000  1.0
  Ag  Ag11  1  0.75000000  0.75000000  0.00000000  1.0
  Ag  Ag12  1  0.00000000  0.00000000  0.50000000  1.0
  Ag  Ag13  1  0.50000000  0.50000000  0.50000000  1.0
  Ag  Ag14  1  0.00000000  0.00000000  0.00000000  1.0
  Ag  Ag15  1  0.50000000  0.50000000  0.00000000  1.0
  H  H16  1  0.59890000  0.07320000  0.28500000  1.0
  H  H17  1  0.63160000  0.02720000  0.16540000  1.0
  H  H18  1  0.61230000  0.23910000  0.88280000  1.0
  H  H19  1  0.62870000  0.19530000  0.71310000  1.0
  H  H20  1  0.87970000  0.22040000  0.61730000  1.0
  H  H21  1  0.85270000  0.17580000  0.75680000  1.0
  H  H22  1  0.88690000  0.06240000  0.21800000  1.0
  H  H23  1  0.86520000  0.01790000  0.37280000  1.0
  H  H24  1  0.54410000  0.13490000  0.93770000  1.0
  H  H25  1  0.57620000  0.08450000  0.80320000  1.0
  H  H26  1  0.66530000  0.16600000  0.19950000  1.0
  H  H27  1  0.69240000  0.12150000  0.03580000  1.0
  H  H28  1  0.82270000  0.15660000  0.27100000  1.0
  H  H29  1  0.79540000  0.10760000  0.42630000  1.0
  H  H30  1  0.94460000  0.13640000  0.54430000  1.0
  H  H31  1  0.91810000  0.08910000  0.70580000  1.0
  H  H32  1  0.09890000  0.57320000  0.28500000  1.0
  H  H33  1  0.13160000  0.52720000  0.16540000  1.0
  H  H34  1  0.11230000  0.73910000  0.88280000  1.0
  H  H35  1  0.12870000  0.69530000  0.71310000  1.0
  H  H36  1  0.37970000  0.72040000  0.61730000  1.0
  H  H37  1  0.35270000  0.67580000  0.75680000  1.0
  H  H38  1  0.38690000  0.56240000  0.21800000  1.0
  H  H39  1  0.36520000  0.51790000  0.37280000  1.0
  H  H40  1  0.04410000  0.63490000  0.93770000  1.0
  H  H41  1  0.07620000  0.58450000  0.80320000  1.0
  H  H42  1  0.16530000  0.66600000  0.19950000  1.0
  H  H43  1  0.19240000  0.62150000  0.03580000  1.0
  H  H44  1  0.32270000  0.65660000  0.27100000  1.0
  H  H45  1  0.29540000  0.60760000  0.42630000  1.0
  H  H46  1  0.44460000  0.63640000  0.54430000  1.0
  H  H47  1  0.41810000  0.58910000  0.70580000  1.0
  H  H48  1  0.40110000  0.07320000  0.21500000  1.0
  H  H49  1  0.36840000  0.02720000  0.33460000  1.0
  H  H50  1  0.38770000  0.23910000  0.61720000  1.0
  H  H51  1  0.37130000  0.19530000  0.78690000  1.0
  H  H52  1  0.12030000  0.22040000  0.88270000  1.0
  H  H53  1  0.14730000  0.17580000  0.74320000  1.0
  H  H54  1  0.11310000  0.06240000  0.28200000  1.0
  H  H55  1  0.13480000  0.01790000  0.12720000  1.0
  H  H56  1  0.45590000  0.13490000  0.56230000  1.0
  H  H57  1  0.42380000  0.08450000  0.69680000  1.0
  H  H58  1  0.33470000  0.16600000  0.30050000  1.0
  H  H59  1  0.30760000  0.12150000  0.46420000  1.0
  H  H60  1  0.17730000  0.15660000  0.22900000  1.0
  H  H61  1  0.20460000  0.10760000  0.07370000  1.0
  H  H62  1  0.05540000  0.13640000  0.95570000  1.0
  H  H63  1  0.08190000  0.08910000  0.79420000  1.0
  H  H64  1  0.90110000  0.57320000  0.21500000  1.0
  H  H65  1  0.86840000  0.52720000  0.33460000  1.0
  H  H66  1  0.88770000  0.73910000  0.61720000  1.0
  H  H67  1  0.87130000  0.69530000  0.78690000  1.0
  H  H68  1  0.62030000  0.72040000  0.88270000  1.0
  H  H69  1  0.64730000  0.67580000  0.74320000  1.0
  H  H70  1  0.61310000  0.56240000  0.28200000  1.0
  H  H71  1  0.63480000  0.51790000  0.12720000  1.0
  H  H72  1  0.95590000  0.63490000  0.56230000  1.0
  H  H73  1  0.92380000  0.58450000  0.69680000  1.0
  H  H74  1  0.83470000  0.66600000  0.30050000  1.0
  H  H75  1  0.80760000  0.62150000  0.46420000  1.0
  H  H76  1  0.67730000  0.65660000  0.22900000  1.0
  H  H77  1  0.70460000  0.60760000  0.07370000  1.0
  H  H78  1  0.55540000  0.63640000  0.95570000  1.0
  H  H79  1  0.58190000  0.58910000  0.79420000  1.0
  H  H80  1  0.40110000  0.92680000  0.71500000  1.0
  H  H81  1  0.36840000  0.97280000  0.83460000  1.0
  H  H82  1  0.38770000  0.76090000  0.11720000  1.0
  H  H83  1  0.37130000  0.80470000  0.28690000  1.0
  H  H84  1  0.12030000  0.77960000  0.38270000  1.0
  H  H85  1  0.14730000  0.82420000  0.24320000  1.0
  H  H86  1  0.11310000  0.93760000  0.78200000  1.0
  H  H87  1  0.13480000  0.98210000  0.62720000  1.0
  H  H88  1  0.45590000  0.86510000  0.06230000  1.0
  H  H89  1  0.42380000  0.91550000  0.19680000  1.0
  H  H90  1  0.33470000  0.83400000  0.80050000  1.0
  H  H91  1  0.30760000  0.87850000  0.96420000  1.0
  H  H92  1  0.17730000  0.84340000  0.72900000  1.0
  H  H93  1  0.20460000  0.89240000  0.57370000  1.0
  H  H94  1  0.05540000  0.86360000  0.45570000  1.0
  H  H95  1  0.08190000  0.91090000  0.29420000  1.0
  H  H96  1  0.90110000  0.42680000  0.71500000  1.0
  H  H97  1  0.86840000  0.47280000  0.83460000  1.0
  H  H98  1  0.88770000  0.26090000  0.11720000  1.0
  H  H99  1  0.87130000  0.30470000  0.28690000  1.0
  H  H100  1  0.62030000  0.27960000  0.38270000  1.0
  H  H101  1  0.64730000  0.32420000  0.24320000  1.0
  H  H102  1  0.61310000  0.43760000  0.78200000  1.0
  H  H103  1  0.63480000  0.48210000  0.62720000  1.0
  H  H104  1  0.95590000  0.36510000  0.06230000  1.0
  H  H105  1  0.92380000  0.41550000  0.19680000  1.0
  H  H106  1  0.83470000  0.33400000  0.80050000  1.0
  H  H107  1  0.80760000  0.37850000  0.96420000  1.0
  H  H108  1  0.67730000  0.34340000  0.72900000  1.0
  H  H109  1  0.70460000  0.39240000  0.57370000  1.0
  H  H110  1  0.55540000  0.36360000  0.45570000  1.0
  H  H111  1  0.58190000  0.41090000  0.29420000  1.0
  H  H112  1  0.59890000  0.92680000  0.78500000  1.0
  H  H113  1  0.63160000  0.97280000  0.66540000  1.0
  H  H114  1  0.61230000  0.76090000  0.38280000  1.0
  H  H115  1  0.62870000  0.80470000  0.21310000  1.0
  H  H116  1  0.87970000  0.77960000  0.11730000  1.0
  H  H117  1  0.85270000  0.82420000  0.25680000  1.0
  H  H118  1  0.88690000  0.93760000  0.71800000  1.0
  H  H119  1  0.86520000  0.98210000  0.87280000  1.0
  H  H120  1  0.54410000  0.86510000  0.43770000  1.0
  H  H121  1  0.57620000  0.91550000  0.30320000  1.0
  H  H122  1  0.66530000  0.83400000  0.69950000  1.0
  H  H123  1  0.69240000  0.87850000  0.53580000  1.0
  H  H124  1  0.82270000  0.84340000  0.77100000  1.0
  H  H125  1  0.79540000  0.89240000  0.92630000  1.0
  H  H126  1  0.94460000  0.86360000  0.04430000  1.0
  H  H127  1  0.91810000  0.91090000  0.20580000  1.0
  H  H128  1  0.09890000  0.42680000  0.78500000  1.0
  H  H129  1  0.13160000  0.47280000  0.66540000  1.0
  H  H130  1  0.11230000  0.26090000  0.38280000  1.0
  H  H131  1  0.12870000  0.30470000  0.21310000  1.0
  H  H132  1  0.37970000  0.27960000  0.11730000  1.0
  H  H133  1  0.35270000  0.32420000  0.25680000  1.0
  H  H134  1  0.38690000  0.43760000  0.71800000  1.0
  H  H135  1  0.36520000  0.48210000  0.87280000  1.0
  H  H136  1  0.04410000  0.36510000  0.43770000  1.0
  H  H137  1  0.07620000  0.41550000  0.30320000  1.0
  H  H138  1  0.16530000  0.33400000  0.69950000  1.0
  H  H139  1  0.19240000  0.37850000  0.53580000  1.0
  H  H140  1  0.32270000  0.34340000  0.77100000  1.0
  H  H141  1  0.29540000  0.39240000  0.92630000  1.0
  H  H142  1  0.44460000  0.36360000  0.04430000  1.0
  H  H143  1  0.41810000  0.41090000  0.20580000  1.0
  C  C144  1  0.58540000  0.10620000  0.95900000  1.0
  C  C145  1  0.65270000  0.14950000  0.03400000  1.0
  C  C146  1  0.83350000  0.13890000  0.43400000  1.0
  C  C147  1  0.90690000  0.10520000  0.54100000  1.0
  C  C148  1  0.08540000  0.60620000  0.95900000  1.0
  C  C149  1  0.15270000  0.64950000  0.03400000  1.0
  C  C150  1  0.33350000  0.63890000  0.43400000  1.0
  C  C151  1  0.40690000  0.60520000  0.54100000  1.0
  C  C152  1  0.41460000  0.10620000  0.54100000  1.0
  C  C153  1  0.34730000  0.14950000  0.46600000  1.0
  C  C154  1  0.16650000  0.13890000  0.06600000  1.0
  C  C155  1  0.09310000  0.10520000  0.95900000  1.0
  C  C156  1  0.91460000  0.60620000  0.54100000  1.0
  C  C157  1  0.84730000  0.64950000  0.46600000  1.0
  C  C158  1  0.66650000  0.63890000  0.06600000  1.0
  C  C159  1  0.59310000  0.60520000  0.95900000  1.0
  C  C160  1  0.41460000  0.89380000  0.04100000  1.0
  C  C161  1  0.34730000  0.85050000  0.96600000  1.0
  C  C162  1  0.16650000  0.86110000  0.56600000  1.0
  C  C163  1  0.09310000  0.89480000  0.45900000  1.0
  C  C164  1  0.91460000  0.39380000  0.04100000  1.0
  C  C165  1  0.84730000  0.35050000  0.96600000  1.0
  C  C166  1  0.66650000  0.36110000  0.56600000  1.0
  C  C167  1  0.59310000  0.39480000  0.45900000  1.0
  C  C168  1  0.58540000  0.89380000  0.45900000  1.0
  C  C169  1  0.65270000  0.85050000  0.53400000  1.0
  C  C170  1  0.83350000  0.86110000  0.93400000  1.0
  C  C171  1  0.90690000  0.89480000  0.04100000  1.0
  C  C172  1  0.08540000  0.39380000  0.45900000  1.0
  C  C173  1  0.15270000  0.35050000  0.53400000  1.0
  C  C174  1  0.33350000  0.36110000  0.93400000  1.0
  C  C175  1  0.40690000  0.39480000  0.04100000  1.0
  N  N176  1  0.59300000  0.05410000  0.14100000  1.0
  N  N177  1  0.64390000  0.20870000  0.87000000  1.0
  N  N178  1  0.84250000  0.19350000  0.60800000  1.0
  N  N179  1  0.89940000  0.04720000  0.37200000  1.0
  N  N180  1  0.09300000  0.55410000  0.14100000  1.0
  N  N181  1  0.14390000  0.70870000  0.87000000  1.0
  N  N182  1  0.34250000  0.69350000  0.60800000  1.0
  N  N183  1  0.39940000  0.54720000  0.37200000  1.0
  N  N184  1  0.40700000  0.05410000  0.35900000  1.0
  N  N185  1  0.35610000  0.20870000  0.63000000  1.0
  N  N186  1  0.15750000  0.19350000  0.89200000  1.0
  N  N187  1  0.10060000  0.04720000  0.12800000  1.0
  N  N188  1  0.90700000  0.55410000  0.35900000  1.0
  N  N189  1  0.85610000  0.70870000  0.63000000  1.0
  N  N190  1  0.65750000  0.69350000  0.89200000  1.0
  N  N191  1  0.60060000  0.54720000  0.12800000  1.0
  N  N192  1  0.40700000  0.94590000  0.85900000  1.0
  N  N193  1  0.35610000  0.79130000  0.13000000  1.0
  N  N194  1  0.15750000  0.80650000  0.39200000  1.0
  N  N195  1  0.10060000  0.95280000  0.62800000  1.0
  N  N196  1  0.90700000  0.44590000  0.85900000  1.0
  N  N197  1  0.85610000  0.29130000  0.13000000  1.0
  N  N198  1  0.65750000  0.30650000  0.39200000  1.0
  N  N199  1  0.60060000  0.45280000  0.62800000  1.0
  N  N200  1  0.59300000  0.94590000  0.64100000  1.0
  N  N201  1  0.64390000  0.79130000  0.37000000  1.0
  N  N202  1  0.84250000  0.80650000  0.10800000  1.0
  N  N203  1  0.89940000  0.95280000  0.87200000  1.0
  N  N204  1  0.09300000  0.44590000  0.64100000  1.0
  N  N205  1  0.14390000  0.29130000  0.37000000  1.0
  N  N206  1  0.34250000  0.30650000  0.10800000  1.0
  N  N207  1  0.39940000  0.45280000  0.87200000  1.0
