# generated using pymatgen
data_AgH8(CN)2
_symmetry_space_group_name_H-M   'P 1'
_cell_length_a   10.40210000
_cell_length_b   10.54100000
_cell_length_c   6.28320000
_cell_angle_alpha   90.00000000
_cell_angle_beta   115.06000000
_cell_angle_gamma   90.00000000
_symmetry_Int_Tables_number   1
_chemical_formula_structural   AgH8(CN)2
_chemical_formula_sum   'Ag4 H32 C8 N8'
_cell_volume   624.08977931
_cell_formula_units_Z   4
loop_
 _symmetry_equiv_pos_site_id
 _symmetry_equiv_pos_as_xyz
  1  'x, y, z'
loop_
 _atom_site_type_symbol
 _atom_site_label
 _atom_site_symmetry_multiplicity
 _atom_site_fract_x
 _atom_site_fract_y
 _atom_site_fract_z
 _atom_site_occupancy
  Ag  Ag0  1  0.50000000  0.00000000  0.50000000  1.0
  Ag  Ag1  1  0.00000000  0.50000000  0.50000000  1.0
  Ag  Ag2  1  0.50000000  0.00000000  0.00000000  1.0
  Ag  Ag3  1  0.00000000  0.50000000  0.00000000  1.0
  H  H4  1  0.39750000  0.26520000  0.57550000  1.0
  H  H5  1  0.32950000  0.17220000  0.69390000  1.0
  H  H6  1  0.29780000  0.14600000  0.24240000  1.0
  H  H7  1  0.23830000  0.05880000  0.35610000  1.0
  H  H8  1  0.89750000  0.76520000  0.57550000  1.0
  H  H9  1  0.82950000  0.67220000  0.69390000  1.0
  H  H10  1  0.79780000  0.64600000  0.24240000  1.0
  H  H11  1  0.73830000  0.55880000  0.35610000  1.0
  H  H12  1  0.60250000  0.26520000  0.92450000  1.0
  H  H13  1  0.67050000  0.17220000  0.80610000  1.0
  H  H14  1  0.70220000  0.14600000  0.25760000  1.0
  H  H15  1  0.76170000  0.05880000  0.14390000  1.0
  H  H16  1  0.10250000  0.76520000  0.92450000  1.0
  H  H17  1  0.17050000  0.67220000  0.80610000  1.0
  H  H18  1  0.20220000  0.64600000  0.25760000  1.0
  H  H19  1  0.26170000  0.55880000  0.14390000  1.0
  H  H20  1  0.60250000  0.73480000  0.42450000  1.0
  H  H21  1  0.67050000  0.82780000  0.30610000  1.0
  H  H22  1  0.70220000  0.85400000  0.75760000  1.0
  H  H23  1  0.76170000  0.94120000  0.64390000  1.0
  H  H24  1  0.10250000  0.23480000  0.42450000  1.0
  H  H25  1  0.17050000  0.32780000  0.30610000  1.0
  H  H26  1  0.20220000  0.35400000  0.75760000  1.0
  H  H27  1  0.26170000  0.44120000  0.64390000  1.0
  H  H28  1  0.39750000  0.73480000  0.07550000  1.0
  H  H29  1  0.32950000  0.82780000  0.19390000  1.0
  H  H30  1  0.29780000  0.85400000  0.74240000  1.0
  H  H31  1  0.23830000  0.94120000  0.85610000  1.0
  H  H32  1  0.89750000  0.23480000  0.07550000  1.0
  H  H33  1  0.82950000  0.32780000  0.19390000  1.0
  H  H34  1  0.79780000  0.35400000  0.74240000  1.0
  H  H35  1  0.73830000  0.44120000  0.85610000  1.0
  C  C36  1  0.31670000  0.21050000  0.54590000  1.0
  C  C37  1  0.81670000  0.71050000  0.54590000  1.0
  C  C38  1  0.68330000  0.21050000  0.95410000  1.0
  C  C39  1  0.18330000  0.71050000  0.95410000  1.0
  C  C40  1  0.68330000  0.78950000  0.45410000  1.0
  C  C41  1  0.18330000  0.28950000  0.45410000  1.0
  C  C42  1  0.31670000  0.78950000  0.04590000  1.0
  C  C43  1  0.81670000  0.28950000  0.04590000  1.0
  N  N44  1  0.31230000  0.11020000  0.38080000  1.0
  N  N45  1  0.81230000  0.61020000  0.38080000  1.0
  N  N46  1  0.68770000  0.11020000  0.11920000  1.0
  N  N47  1  0.18770000  0.61020000  0.11920000  1.0
  N  N48  1  0.68770000  0.88980000  0.61920000  1.0
  N  N49  1  0.18770000  0.38980000  0.61920000  1.0
  N  N50  1  0.31230000  0.88980000  0.88080000  1.0
  N  N51  1  0.81230000  0.38980000  0.88080000  1.0
