# generated using pymatgen
data_AgH4(C2N3)2
_symmetry_space_group_name_H-M   'P 1'
_cell_length_a   22.87000000
_cell_length_b   34.64700000
_cell_length_c   9.53500000
_cell_angle_alpha   90.00000000
_cell_angle_beta   90.00000000
_cell_angle_gamma   90.00000000
_symmetry_Int_Tables_number   1
_chemical_formula_structural   AgH4(C2N3)2
_chemical_formula_sum   'Ag32 H128 C128 N192'
_cell_volume   7555.31364615
_cell_formula_units_Z   32
loop_
 _symmetry_equiv_pos_site_id
 _symmetry_equiv_pos_as_xyz
  1  'x, y, z'
loop_
 _atom_site_type_symbol
 _atom_site_label
 _atom_site_symmetry_multiplicity
 _atom_site_fract_x
 _atom_site_fract_y
 _atom_site_fract_z
 _atom_site_occupancy
  Ag  Ag0  1  0.32282000  0.12520000  0.63884000  1.0
  Ag  Ag1  1  0.44127000  0.14111000  0.96205000  1.0
  Ag  Ag2  1  0.32282000  0.62520000  0.13884000  1.0
  Ag  Ag3  1  0.44127000  0.64111000  0.46205000  1.0
  Ag  Ag4  1  0.82282000  0.12520000  0.13884000  1.0
  Ag  Ag5  1  0.94127000  0.14111000  0.46205000  1.0
  Ag  Ag6  1  0.82282000  0.62520000  0.63884000  1.0
  Ag  Ag7  1  0.94127000  0.64111000  0.96205000  1.0
  Ag  Ag8  1  0.67718000  0.87480000  0.63884000  1.0
  Ag  Ag9  1  0.55873000  0.85889000  0.96205000  1.0
  Ag  Ag10  1  0.67718000  0.37480000  0.13884000  1.0
  Ag  Ag11  1  0.55873000  0.35889000  0.46205000  1.0
  Ag  Ag12  1  0.17718000  0.87480000  0.13884000  1.0
  Ag  Ag13  1  0.05873000  0.85889000  0.46205000  1.0
  Ag  Ag14  1  0.17718000  0.37480000  0.63884000  1.0
  Ag  Ag15  1  0.05873000  0.35889000  0.96205000  1.0
  Ag  Ag16  1  0.57282000  0.12480000  0.88884000  1.0
  Ag  Ag17  1  0.69127000  0.10889000  0.21205000  1.0
  Ag  Ag18  1  0.57282000  0.62480000  0.38884000  1.0
  Ag  Ag19  1  0.69127000  0.60890000  0.71205000  1.0
  Ag  Ag20  1  0.07282000  0.12480000  0.38884000  1.0
  Ag  Ag21  1  0.19127000  0.10889000  0.71205000  1.0
  Ag  Ag22  1  0.07282000  0.62480000  0.88884000  1.0
  Ag  Ag23  1  0.19127000  0.60890000  0.21205000  1.0
  Ag  Ag24  1  0.92718000  0.37520000  0.88884000  1.0
  Ag  Ag25  1  0.80873000  0.39111000  0.21205000  1.0
  Ag  Ag26  1  0.92718000  0.87520000  0.38884000  1.0
  Ag  Ag27  1  0.80873000  0.89111000  0.71205000  1.0
  Ag  Ag28  1  0.42718000  0.37520000  0.38884000  1.0
  Ag  Ag29  1  0.30873000  0.39111000  0.71205000  1.0
  Ag  Ag30  1  0.42718000  0.87520000  0.88884000  1.0
  Ag  Ag31  1  0.30873000  0.89111000  0.21205000  1.0
  H  H32  1  0.56250000  0.12860000  0.54810000  1.0
  H  H33  1  0.46030000  0.03720000  0.54140000  1.0
  H  H34  1  0.45730000  0.13690000  0.31860000  1.0
  H  H35  1  0.55080000  0.04270000  0.26450000  1.0
  H  H36  1  0.29350000  0.98750000  0.11750000  1.0
  H  H37  1  0.39290000  0.96050000  0.79420000  1.0
  H  H38  1  0.41550000  0.04770000  0.03290000  1.0
  H  H39  1  0.29150000  0.03520000  0.75040000  1.0
  H  H40  1  0.56250000  0.62860000  0.04810000  1.0
  H  H41  1  0.46030000  0.53720000  0.04140000  1.0
  H  H42  1  0.45730000  0.63690000  0.81860000  1.0
  H  H43  1  0.55080000  0.54270000  0.76450000  1.0
  H  H44  1  0.29350000  0.48750000  0.61750000  1.0
  H  H45  1  0.39290000  0.46050000  0.29420000  1.0
  H  H46  1  0.41550000  0.54770000  0.53290000  1.0
  H  H47  1  0.29150000  0.53520000  0.25040000  1.0
  H  H48  1  0.06250000  0.12860000  0.04810000  1.0
  H  H49  1  0.96030000  0.03720000  0.04140000  1.0
  H  H50  1  0.95730000  0.13690000  0.81860000  1.0
  H  H51  1  0.05080000  0.04270000  0.76450000  1.0
  H  H52  1  0.79350000  0.98750000  0.61750000  1.0
  H  H53  1  0.89290000  0.96050000  0.29420000  1.0
  H  H54  1  0.91550000  0.04770000  0.53290000  1.0
  H  H55  1  0.79150000  0.03520000  0.25040000  1.0
  H  H56  1  0.06250000  0.62860000  0.54810000  1.0
  H  H57  1  0.96030000  0.53720000  0.54140000  1.0
  H  H58  1  0.95730000  0.63690000  0.31860000  1.0
  H  H59  1  0.05080000  0.54270000  0.26450000  1.0
  H  H60  1  0.79350000  0.48750000  0.11750000  1.0
  H  H61  1  0.89290000  0.46050000  0.79420000  1.0
  H  H62  1  0.91550000  0.54770000  0.03290000  1.0
  H  H63  1  0.79150000  0.53520000  0.75040000  1.0
  H  H64  1  0.43750000  0.87140000  0.54810000  1.0
  H  H65  1  0.53970000  0.96280000  0.54140000  1.0
  H  H66  1  0.54270000  0.86310000  0.31860000  1.0
  H  H67  1  0.44920000  0.95730000  0.26450000  1.0
  H  H68  1  0.70650000  0.01250000  0.11750000  1.0
  H  H69  1  0.60710000  0.03950000  0.79420000  1.0
  H  H70  1  0.58450000  0.95230000  0.03290000  1.0
  H  H71  1  0.70850000  0.96480000  0.75040000  1.0
  H  H72  1  0.43750000  0.37140000  0.04810000  1.0
  H  H73  1  0.53970000  0.46280000  0.04140000  1.0
  H  H74  1  0.54270000  0.36310000  0.81860000  1.0
  H  H75  1  0.44920000  0.45730000  0.76450000  1.0
  H  H76  1  0.70650000  0.51250000  0.61750000  1.0
  H  H77  1  0.60710000  0.53950000  0.29420000  1.0
  H  H78  1  0.58450000  0.45230000  0.53290000  1.0
  H  H79  1  0.70850000  0.46480000  0.25040000  1.0
  H  H80  1  0.93750000  0.87140000  0.04810000  1.0
  H  H81  1  0.03970000  0.96280000  0.04140000  1.0
  H  H82  1  0.04270000  0.86310000  0.81860000  1.0
  H  H83  1  0.94920000  0.95730000  0.76450000  1.0
  H  H84  1  0.20650000  0.01250000  0.61750000  1.0
  H  H85  1  0.10710000  0.03950000  0.29420000  1.0
  H  H86  1  0.08450000  0.95230000  0.53290000  1.0
  H  H87  1  0.20850000  0.96480000  0.25040000  1.0
  H  H88  1  0.93750000  0.37140000  0.54810000  1.0
  H  H89  1  0.03970000  0.46280000  0.54140000  1.0
  H  H90  1  0.04270000  0.36310000  0.31860000  1.0
  H  H91  1  0.94920000  0.45730000  0.26450000  1.0
  H  H92  1  0.20650000  0.51250000  0.11750000  1.0
  H  H93  1  0.10710000  0.53950000  0.79420000  1.0
  H  H94  1  0.08450000  0.45230000  0.03290000  1.0
  H  H95  1  0.20850000  0.46480000  0.75040000  1.0
  H  H96  1  0.81250000  0.12140000  0.79810000  1.0
  H  H97  1  0.71030000  0.21280000  0.79140000  1.0
  H  H98  1  0.70730000  0.11310000  0.56860000  1.0
  H  H99  1  0.80080000  0.20730000  0.51450000  1.0
  H  H100  1  0.54350000  0.26250000  0.36750000  1.0
  H  H101  1  0.64290000  0.28950000  0.04420000  1.0
  H  H102  1  0.66550000  0.20230000  0.28290000  1.0
  H  H103  1  0.54150000  0.21480000  0.00040000  1.0
  H  H104  1  0.81250000  0.62140000  0.29810000  1.0
  H  H105  1  0.71030000  0.71280000  0.29140000  1.0
  H  H106  1  0.70730000  0.61310000  0.06860000  1.0
  H  H107  1  0.80080000  0.70730000  0.01450000  1.0
  H  H108  1  0.54350000  0.76250000  0.86750000  1.0
  H  H109  1  0.64290000  0.78950000  0.54420000  1.0
  H  H110  1  0.66550000  0.70230000  0.78290000  1.0
  H  H111  1  0.54150000  0.71480000  0.50040000  1.0
  H  H112  1  0.31250000  0.12140000  0.29810000  1.0
  H  H113  1  0.21030000  0.21280000  0.29140000  1.0
  H  H114  1  0.20730000  0.11310000  0.06860000  1.0
  H  H115  1  0.30080000  0.20730000  0.01450000  1.0
  H  H116  1  0.04350000  0.26250000  0.86750000  1.0
  H  H117  1  0.14290000  0.28950000  0.54420000  1.0
  H  H118  1  0.16550000  0.20230000  0.78290000  1.0
  H  H119  1  0.04150000  0.21480000  0.50040000  1.0
  H  H120  1  0.31250000  0.62140000  0.79810000  1.0
  H  H121  1  0.21030000  0.71280000  0.79140000  1.0
  H  H122  1  0.20730000  0.61310000  0.56860000  1.0
  H  H123  1  0.30080000  0.70730000  0.51450000  1.0
  H  H124  1  0.04350000  0.76250000  0.36750000  1.0
  H  H125  1  0.14290000  0.78950000  0.04420000  1.0
  H  H126  1  0.16550000  0.70230000  0.28290000  1.0
  H  H127  1  0.04150000  0.71480000  0.00040000  1.0
  H  H128  1  0.68750000  0.37860000  0.79810000  1.0
  H  H129  1  0.78970000  0.28720000  0.79140000  1.0
  H  H130  1  0.79270000  0.38690000  0.56860000  1.0
  H  H131  1  0.69920000  0.29270000  0.51450000  1.0
  H  H132  1  0.95650000  0.23750000  0.36750000  1.0
  H  H133  1  0.85710000  0.21050000  0.04420000  1.0
  H  H134  1  0.83450000  0.29770000  0.28290000  1.0
  H  H135  1  0.95850000  0.28520000  0.00040000  1.0
  H  H136  1  0.68750000  0.87860000  0.29810000  1.0
  H  H137  1  0.78970000  0.78720000  0.29140000  1.0
  H  H138  1  0.79270000  0.88690000  0.06860000  1.0
  H  H139  1  0.69920000  0.79270000  0.01450000  1.0
  H  H140  1  0.95650000  0.73750000  0.86750000  1.0
  H  H141  1  0.85710000  0.71050000  0.54420000  1.0
  H  H142  1  0.83450000  0.79770000  0.78290000  1.0
  H  H143  1  0.95850000  0.78520000  0.50040000  1.0
  H  H144  1  0.18750000  0.37860000  0.29810000  1.0
  H  H145  1  0.28970000  0.28720000  0.29140000  1.0
  H  H146  1  0.29270000  0.38690000  0.06860000  1.0
  H  H147  1  0.19920000  0.29270000  0.01450000  1.0
  H  H148  1  0.45650000  0.23750000  0.86750000  1.0
  H  H149  1  0.35710000  0.21050000  0.54420000  1.0
  H  H150  1  0.33450000  0.29770000  0.78290000  1.0
  H  H151  1  0.45850000  0.28520000  0.50040000  1.0
  H  H152  1  0.18750000  0.87860000  0.79810000  1.0
  H  H153  1  0.28970000  0.78720000  0.79140000  1.0
  H  H154  1  0.29270000  0.88690000  0.56860000  1.0
  H  H155  1  0.19920000  0.79270000  0.51450000  1.0
  H  H156  1  0.45650000  0.73750000  0.36750000  1.0
  H  H157  1  0.35710000  0.71050000  0.04420000  1.0
  H  H158  1  0.33450000  0.79770000  0.28290000  1.0
  H  H159  1  0.45850000  0.78520000  0.00040000  1.0
  C  C160  1  0.53980000  0.10772000  0.57650000  1.0
  C  C161  1  0.48386000  0.05727000  0.57310000  1.0
  C  C162  1  0.47744000  0.11662000  0.27690000  1.0
  C  C163  1  0.52891000  0.06473000  0.24640000  1.0
  C  C164  1  0.31530000  0.97347000  0.05270000  1.0
  C  C165  1  0.36996000  0.95853000  0.87440000  1.0
  C  C166  1  0.38918000  0.05279000  0.96090000  1.0
  C  C167  1  0.32092000  0.04582000  0.80530000  1.0
  C  C168  1  0.53980000  0.60772000  0.07650000  1.0
  C  C169  1  0.48386000  0.55727000  0.07310000  1.0
  C  C170  1  0.47744000  0.61662000  0.77690000  1.0
  C  C171  1  0.52891000  0.56473000  0.74640000  1.0
  C  C172  1  0.31530000  0.47347000  0.55270000  1.0
  C  C173  1  0.36996000  0.45853000  0.37440000  1.0
  C  C174  1  0.38918000  0.55279000  0.46090000  1.0
  C  C175  1  0.32092000  0.54582000  0.30530000  1.0
  C  C176  1  0.03980000  0.10772000  0.07650000  1.0
  C  C177  1  0.98386000  0.05727000  0.07310000  1.0
  C  C178  1  0.97744000  0.11662000  0.77690000  1.0
  C  C179  1  0.02891000  0.06473000  0.74640000  1.0
  C  C180  1  0.81530000  0.97347000  0.55270000  1.0
  C  C181  1  0.86996000  0.95853000  0.37440000  1.0
  C  C182  1  0.88918000  0.05279000  0.46090000  1.0
  C  C183  1  0.82092000  0.04582000  0.30530000  1.0
  C  C184  1  0.03980000  0.60772000  0.57650000  1.0
  C  C185  1  0.98386000  0.55727000  0.57310000  1.0
  C  C186  1  0.97744000  0.61662000  0.27690000  1.0
  C  C187  1  0.02891000  0.56473000  0.24640000  1.0
  C  C188  1  0.81530000  0.47347000  0.05270000  1.0
  C  C189  1  0.86996000  0.45853000  0.87440000  1.0
  C  C190  1  0.88918000  0.55279000  0.96090000  1.0
  C  C191  1  0.82092000  0.54582000  0.80530000  1.0
  C  C192  1  0.46020000  0.89228000  0.57650000  1.0
  C  C193  1  0.51614000  0.94273000  0.57310000  1.0
  C  C194  1  0.52256000  0.88338000  0.27690000  1.0
  C  C195  1  0.47109000  0.93527000  0.24640000  1.0
  C  C196  1  0.68470000  0.02653000  0.05270000  1.0
  C  C197  1  0.63004000  0.04147000  0.87440000  1.0
  C  C198  1  0.61082000  0.94721000  0.96090000  1.0
  C  C199  1  0.67908000  0.95418000  0.80530000  1.0
  C  C200  1  0.46020000  0.39228000  0.07650000  1.0
  C  C201  1  0.51614000  0.44273000  0.07310000  1.0
  C  C202  1  0.52256000  0.38338000  0.77690000  1.0
  C  C203  1  0.47109000  0.43527000  0.74640000  1.0
  C  C204  1  0.68470000  0.52653000  0.55270000  1.0
  C  C205  1  0.63004000  0.54147000  0.37440000  1.0
  C  C206  1  0.61082000  0.44721000  0.46090000  1.0
  C  C207  1  0.67908000  0.45418000  0.30530000  1.0
  C  C208  1  0.96020000  0.89228000  0.07650000  1.0
  C  C209  1  0.01614000  0.94273000  0.07310000  1.0
  C  C210  1  0.02256000  0.88338000  0.77690000  1.0
  C  C211  1  0.97109000  0.93527000  0.74640000  1.0
  C  C212  1  0.18470000  0.02653000  0.55270000  1.0
  C  C213  1  0.13004000  0.04147000  0.37440000  1.0
  C  C214  1  0.11082000  0.94721000  0.46090000  1.0
  C  C215  1  0.17908000  0.95418000  0.30530000  1.0
  C  C216  1  0.96020000  0.39228000  0.57650000  1.0
  C  C217  1  0.01614000  0.44273000  0.57310000  1.0
  C  C218  1  0.02256000  0.38338000  0.27690000  1.0
  C  C219  1  0.97109000  0.43527000  0.24640000  1.0
  C  C220  1  0.18470000  0.52653000  0.05270000  1.0
  C  C221  1  0.13004000  0.54147000  0.87440000  1.0
  C  C222  1  0.11082000  0.44721000  0.96090000  1.0
  C  C223  1  0.17908000  0.45418000  0.80530000  1.0
  C  C224  1  0.78980000  0.14228000  0.82650000  1.0
  C  C225  1  0.73386000  0.19273000  0.82310000  1.0
  C  C226  1  0.72744000  0.13338000  0.52690000  1.0
  C  C227  1  0.77891000  0.18527000  0.49640000  1.0
  C  C228  1  0.56530000  0.27653000  0.30270000  1.0
  C  C229  1  0.61996000  0.29147000  0.12440000  1.0
  C  C230  1  0.63918000  0.19721000  0.21090000  1.0
  C  C231  1  0.57092000  0.20418000  0.05530000  1.0
  C  C232  1  0.78980000  0.64228000  0.32650000  1.0
  C  C233  1  0.73386000  0.69273000  0.32310000  1.0
  C  C234  1  0.72744000  0.63338000  0.02690000  1.0
  C  C235  1  0.77891000  0.68527000  0.99640000  1.0
  C  C236  1  0.56530000  0.77653000  0.80270000  1.0
  C  C237  1  0.61996000  0.79147000  0.62440000  1.0
  C  C238  1  0.63918000  0.69721000  0.71090000  1.0
  C  C239  1  0.57092000  0.70418000  0.55530000  1.0
  C  C240  1  0.28980000  0.14228000  0.32650000  1.0
  C  C241  1  0.23386000  0.19273000  0.32310000  1.0
  C  C242  1  0.22744000  0.13338000  0.02690000  1.0
  C  C243  1  0.27891000  0.18527000  0.99640000  1.0
  C  C244  1  0.06530000  0.27653000  0.80270000  1.0
  C  C245  1  0.11996000  0.29147000  0.62440000  1.0
  C  C246  1  0.13918000  0.19721000  0.71090000  1.0
  C  C247  1  0.07092000  0.20418000  0.55530000  1.0
  C  C248  1  0.28980000  0.64228000  0.82650000  1.0
  C  C249  1  0.23386000  0.69273000  0.82310000  1.0
  C  C250  1  0.22744000  0.63338000  0.52690000  1.0
  C  C251  1  0.27891000  0.68527000  0.49640000  1.0
  C  C252  1  0.06530000  0.77653000  0.30270000  1.0
  C  C253  1  0.11996000  0.79147000  0.12440000  1.0
  C  C254  1  0.13918000  0.69721000  0.21090000  1.0
  C  C255  1  0.07092000  0.70418000  0.05530000  1.0
  C  C256  1  0.71020000  0.35772000  0.82650000  1.0
  C  C257  1  0.76614000  0.30727000  0.82310000  1.0
  C  C258  1  0.77256000  0.36662000  0.52690000  1.0
  C  C259  1  0.72109000  0.31473000  0.49640000  1.0
  C  C260  1  0.93470000  0.22347000  0.30270000  1.0
  C  C261  1  0.88004000  0.20853000  0.12440000  1.0
  C  C262  1  0.86082000  0.30279000  0.21090000  1.0
  C  C263  1  0.92908000  0.29582000  0.05530000  1.0
  C  C264  1  0.71020000  0.85772000  0.32650000  1.0
  C  C265  1  0.76614000  0.80727000  0.32310000  1.0
  C  C266  1  0.77256000  0.86662000  0.02690000  1.0
  C  C267  1  0.72109000  0.81473000  0.99640000  1.0
  C  C268  1  0.93470000  0.72347000  0.80270000  1.0
  C  C269  1  0.88004000  0.70853000  0.62440000  1.0
  C  C270  1  0.86082000  0.80279000  0.71090000  1.0
  C  C271  1  0.92908000  0.79582000  0.55530000  1.0
  C  C272  1  0.21020000  0.35772000  0.32650000  1.0
  C  C273  1  0.26614000  0.30727000  0.32310000  1.0
  C  C274  1  0.27256000  0.36662000  0.02690000  1.0
  C  C275  1  0.22109000  0.31473000  0.99640000  1.0
  C  C276  1  0.43470000  0.22347000  0.80270000  1.0
  C  C277  1  0.38004000  0.20853000  0.62440000  1.0
  C  C278  1  0.36082000  0.30279000  0.71090000  1.0
  C  C279  1  0.42908000  0.29582000  0.55530000  1.0
  C  C280  1  0.21020000  0.85772000  0.82650000  1.0
  C  C281  1  0.26614000  0.80727000  0.82310000  1.0
  C  C282  1  0.27256000  0.86662000  0.52690000  1.0
  C  C283  1  0.22109000  0.81473000  0.49640000  1.0
  C  C284  1  0.43470000  0.72347000  0.30270000  1.0
  C  C285  1  0.38004000  0.70853000  0.12440000  1.0
  C  C286  1  0.36082000  0.80279000  0.21090000  1.0
  C  C287  1  0.42908000  0.79582000  0.05530000  1.0
  N  N288  1  0.49725000  0.06394000  0.70310000  1.0
  N  N289  1  0.53247000  0.09694000  0.70360000  1.0
  N  N290  1  0.50978000  0.08443000  0.49040000  1.0
  N  N291  1  0.50591000  0.08803000  0.34520000  1.0
  N  N292  1  0.48314000  0.11088000  0.14320000  1.0
  N  N293  1  0.51594000  0.07759000  0.12210000  1.0
  N  N294  1  0.32210000  0.93627000  0.05210000  1.0
  N  N295  1  0.35689000  0.92670000  0.93720000  1.0
  N  N296  1  0.34546000  0.98848000  0.94230000  1.0
  N  N297  1  0.35111000  0.02693000  0.90640000  1.0
  N  N298  1  0.38347000  0.08539000  0.89810000  1.0
  N  N299  1  0.33940000  0.08084000  0.79710000  1.0
  N  N300  1  0.49725000  0.56394000  0.20310000  1.0
  N  N301  1  0.53247000  0.59694000  0.20360000  1.0
  N  N302  1  0.50978000  0.58443000  0.99040000  1.0
  N  N303  1  0.50591000  0.58803000  0.84520000  1.0
  N  N304  1  0.48314000  0.61088000  0.64320000  1.0
  N  N305  1  0.51594000  0.57759000  0.62210000  1.0
  N  N306  1  0.32210000  0.43627000  0.55210000  1.0
  N  N307  1  0.35689000  0.42670000  0.43720000  1.0
  N  N308  1  0.34546000  0.48848000  0.44230000  1.0
  N  N309  1  0.35111000  0.52693000  0.40640000  1.0
  N  N310  1  0.38347000  0.58539000  0.39810000  1.0
  N  N311  1  0.33940000  0.58084000  0.29710000  1.0
  N  N312  1  0.99725000  0.06394000  0.20310000  1.0
  N  N313  1  0.03247000  0.09694000  0.20360000  1.0
  N  N314  1  0.00978000  0.08443000  0.99040000  1.0
  N  N315  1  0.00591000  0.08803000  0.84520000  1.0
  N  N316  1  0.98314000  0.11088000  0.64320000  1.0
  N  N317  1  0.01594000  0.07759000  0.62210000  1.0
  N  N318  1  0.82210000  0.93627000  0.55210000  1.0
  N  N319  1  0.85689000  0.92670000  0.43720000  1.0
  N  N320  1  0.84546000  0.98848000  0.44230000  1.0
  N  N321  1  0.85111000  0.02693000  0.40640000  1.0
  N  N322  1  0.88347000  0.08539000  0.39810000  1.0
  N  N323  1  0.83940000  0.08084000  0.29710000  1.0
  N  N324  1  0.99725000  0.56394000  0.70310000  1.0
  N  N325  1  0.03247000  0.59694000  0.70360000  1.0
  N  N326  1  0.00978000  0.58443000  0.49040000  1.0
  N  N327  1  0.00591000  0.58803000  0.34520000  1.0
  N  N328  1  0.98314000  0.61088000  0.14320000  1.0
  N  N329  1  0.01594000  0.57759000  0.12210000  1.0
  N  N330  1  0.82210000  0.43627000  0.05210000  1.0
  N  N331  1  0.85689000  0.42670000  0.93720000  1.0
  N  N332  1  0.84546000  0.48848000  0.94230000  1.0
  N  N333  1  0.85111000  0.52693000  0.90640000  1.0
  N  N334  1  0.88347000  0.58539000  0.89810000  1.0
  N  N335  1  0.83940000  0.58084000  0.79710000  1.0
  N  N336  1  0.50275000  0.93606000  0.70310000  1.0
  N  N337  1  0.46753000  0.90306000  0.70360000  1.0
  N  N338  1  0.49022000  0.91557000  0.49040000  1.0
  N  N339  1  0.49409000  0.91197000  0.34520000  1.0
  N  N340  1  0.51686000  0.88912000  0.14320000  1.0
  N  N341  1  0.48406000  0.92241000  0.12210000  1.0
  N  N342  1  0.67790000  0.06373000  0.05210000  1.0
  N  N343  1  0.64311000  0.07330000  0.93720000  1.0
  N  N344  1  0.65454000  0.01152000  0.94230000  1.0
  N  N345  1  0.64889000  0.97307000  0.90640000  1.0
  N  N346  1  0.61653000  0.91461000  0.89810000  1.0
  N  N347  1  0.66060000  0.91916000  0.79710000  1.0
  N  N348  1  0.50275000  0.43606000  0.20310000  1.0
  N  N349  1  0.46753000  0.40306000  0.20360000  1.0
  N  N350  1  0.49022000  0.41557000  0.99040000  1.0
  N  N351  1  0.49409000  0.41197000  0.84520000  1.0
  N  N352  1  0.51686000  0.38912000  0.64320000  1.0
  N  N353  1  0.48406000  0.42241000  0.62210000  1.0
  N  N354  1  0.67790000  0.56373000  0.55210000  1.0
  N  N355  1  0.64311000  0.57330000  0.43720000  1.0
  N  N356  1  0.65454000  0.51152000  0.44230000  1.0
  N  N357  1  0.64889000  0.47307000  0.40640000  1.0
  N  N358  1  0.61653000  0.41461000  0.39810000  1.0
  N  N359  1  0.66060000  0.41916000  0.29710000  1.0
  N  N360  1  0.00275000  0.93606000  0.20310000  1.0
  N  N361  1  0.96753000  0.90306000  0.20360000  1.0
  N  N362  1  0.99022000  0.91557000  0.99040000  1.0
  N  N363  1  0.99409000  0.91197000  0.84520000  1.0
  N  N364  1  0.01686000  0.88912000  0.64320000  1.0
  N  N365  1  0.98406000  0.92241000  0.62210000  1.0
  N  N366  1  0.17790000  0.06373000  0.55210000  1.0
  N  N367  1  0.14311000  0.07330000  0.43720000  1.0
  N  N368  1  0.15454000  0.01152000  0.44230000  1.0
  N  N369  1  0.14889000  0.97307000  0.40640000  1.0
  N  N370  1  0.11653000  0.91461000  0.39810000  1.0
  N  N371  1  0.16060000  0.91916000  0.29710000  1.0
  N  N372  1  0.00275000  0.43606000  0.70310000  1.0
  N  N373  1  0.96753000  0.40306000  0.70360000  1.0
  N  N374  1  0.99022000  0.41557000  0.49040000  1.0
  N  N375  1  0.99409000  0.41197000  0.34520000  1.0
  N  N376  1  0.01686000  0.38912000  0.14320000  1.0
  N  N377  1  0.98406000  0.42241000  0.12210000  1.0
  N  N378  1  0.17790000  0.56373000  0.05210000  1.0
  N  N379  1  0.14311000  0.57330000  0.93720000  1.0
  N  N380  1  0.15454000  0.51152000  0.94230000  1.0
  N  N381  1  0.14889000  0.47307000  0.90640000  1.0
  N  N382  1  0.11653000  0.41461000  0.89810000  1.0
  N  N383  1  0.16060000  0.41916000  0.79710000  1.0
  N  N384  1  0.74725000  0.18606000  0.95310000  1.0
  N  N385  1  0.78247000  0.15306000  0.95360000  1.0
  N  N386  1  0.75978000  0.16557000  0.74040000  1.0
  N  N387  1  0.75591000  0.16197000  0.59520000  1.0
  N  N388  1  0.73314000  0.13912000  0.39320000  1.0
  N  N389  1  0.76594000  0.17241000  0.37210000  1.0
  N  N390  1  0.57210000  0.31373000  0.30210000  1.0
  N  N391  1  0.60689000  0.32330000  0.18720000  1.0
  N  N392  1  0.59546000  0.26152000  0.19230000  1.0
  N  N393  1  0.60111000  0.22307000  0.15640000  1.0
  N  N394  1  0.63347000  0.16461000  0.14810000  1.0
  N  N395  1  0.58940000  0.16916000  0.04710000  1.0
  N  N396  1  0.74725000  0.68606000  0.45310000  1.0
  N  N397  1  0.78247000  0.65306000  0.45360000  1.0
  N  N398  1  0.75978000  0.66557000  0.24040000  1.0
  N  N399  1  0.75591000  0.66197000  0.09520000  1.0
  N  N400  1  0.73314000  0.63912000  0.89320000  1.0
  N  N401  1  0.76594000  0.67241000  0.87210000  1.0
  N  N402  1  0.57210000  0.81373000  0.80210000  1.0
  N  N403  1  0.60689000  0.82330000  0.68720000  1.0
  N  N404  1  0.59546000  0.76152000  0.69230000  1.0
  N  N405  1  0.60111000  0.72307000  0.65640000  1.0
  N  N406  1  0.63347000  0.66461000  0.64810000  1.0
  N  N407  1  0.58940000  0.66916000  0.54710000  1.0
  N  N408  1  0.24725000  0.18606000  0.45310000  1.0
  N  N409  1  0.28247000  0.15306000  0.45360000  1.0
  N  N410  1  0.25978000  0.16557000  0.24040000  1.0
  N  N411  1  0.25591000  0.16197000  0.09520000  1.0
  N  N412  1  0.23314000  0.13912000  0.89320000  1.0
  N  N413  1  0.26594000  0.17241000  0.87210000  1.0
  N  N414  1  0.07210000  0.31373000  0.80210000  1.0
  N  N415  1  0.10689000  0.32330000  0.68720000  1.0
  N  N416  1  0.09546000  0.26152000  0.69230000  1.0
  N  N417  1  0.10111000  0.22307000  0.65640000  1.0
  N  N418  1  0.13347000  0.16461000  0.64810000  1.0
  N  N419  1  0.08940000  0.16916000  0.54710000  1.0
  N  N420  1  0.24725000  0.68606000  0.95310000  1.0
  N  N421  1  0.28247000  0.65306000  0.95360000  1.0
  N  N422  1  0.25978000  0.66557000  0.74040000  1.0
  N  N423  1  0.25591000  0.66197000  0.59520000  1.0
  N  N424  1  0.23314000  0.63912000  0.39320000  1.0
  N  N425  1  0.26594000  0.67241000  0.37210000  1.0
  N  N426  1  0.07210000  0.81373000  0.30210000  1.0
  N  N427  1  0.10689000  0.82330000  0.18720000  1.0
  N  N428  1  0.09546000  0.76152000  0.19230000  1.0
  N  N429  1  0.10111000  0.72307000  0.15640000  1.0
  N  N430  1  0.13347000  0.66461000  0.14810000  1.0
  N  N431  1  0.08940000  0.66916000  0.04710000  1.0
  N  N432  1  0.75275000  0.31394000  0.95310000  1.0
  N  N433  1  0.71753000  0.34694000  0.95360000  1.0
  N  N434  1  0.74022000  0.33443000  0.74040000  1.0
  N  N435  1  0.74409000  0.33803000  0.59520000  1.0
  N  N436  1  0.76686000  0.36088000  0.39320000  1.0
  N  N437  1  0.73406000  0.32759000  0.37210000  1.0
  N  N438  1  0.92790000  0.18627000  0.30210000  1.0
  N  N439  1  0.89311000  0.17670000  0.18720000  1.0
  N  N440  1  0.90454000  0.23848000  0.19230000  1.0
  N  N441  1  0.89889000  0.27693000  0.15640000  1.0
  N  N442  1  0.86653000  0.33539000  0.14810000  1.0
  N  N443  1  0.91060000  0.33084000  0.04710000  1.0
  N  N444  1  0.75275000  0.81394000  0.45310000  1.0
  N  N445  1  0.71753000  0.84694000  0.45360000  1.0
  N  N446  1  0.74022000  0.83443000  0.24040000  1.0
  N  N447  1  0.74409000  0.83803000  0.09520000  1.0
  N  N448  1  0.76686000  0.86088000  0.89320000  1.0
  N  N449  1  0.73406000  0.82759000  0.87210000  1.0
  N  N450  1  0.92790000  0.68627000  0.80210000  1.0
  N  N451  1  0.89311000  0.67670000  0.68720000  1.0
  N  N452  1  0.90454000  0.73848000  0.69230000  1.0
  N  N453  1  0.89889000  0.77693000  0.65640000  1.0
  N  N454  1  0.86653000  0.83539000  0.64810000  1.0
  N  N455  1  0.91060000  0.83084000  0.54710000  1.0
  N  N456  1  0.25275000  0.31394000  0.45310000  1.0
  N  N457  1  0.21753000  0.34694000  0.45360000  1.0
  N  N458  1  0.24022000  0.33443000  0.24040000  1.0
  N  N459  1  0.24409000  0.33803000  0.09520000  1.0
  N  N460  1  0.26686000  0.36088000  0.89320000  1.0
  N  N461  1  0.23406000  0.32759000  0.87210000  1.0
  N  N462  1  0.42790000  0.18627000  0.80210000  1.0
  N  N463  1  0.39311000  0.17670000  0.68720000  1.0
  N  N464  1  0.40454000  0.23848000  0.69230000  1.0
  N  N465  1  0.39889000  0.27693000  0.65640000  1.0
  N  N466  1  0.36653000  0.33539000  0.64810000  1.0
  N  N467  1  0.41060000  0.33084000  0.54710000  1.0
  N  N468  1  0.25275000  0.81394000  0.95310000  1.0
  N  N469  1  0.21753000  0.84694000  0.95360000  1.0
  N  N470  1  0.24022000  0.83443000  0.74040000  1.0
  N  N471  1  0.24409000  0.83803000  0.59520000  1.0
  N  N472  1  0.26686000  0.86088000  0.39320000  1.0
  N  N473  1  0.23406000  0.82759000  0.37210000  1.0
  N  N474  1  0.42790000  0.68627000  0.30210000  1.0
  N  N475  1  0.39311000  0.67670000  0.18720000  1.0
  N  N476  1  0.40454000  0.73848000  0.19230000  1.0
  N  N477  1  0.39889000  0.77693000  0.15640000  1.0
  N  N478  1  0.36653000  0.83539000  0.14810000  1.0
  N  N479  1  0.41060000  0.83084000  0.04710000  1.0
