# generated using pymatgen
data_Dy2H5C14(NO4)3
_symmetry_space_group_name_H-M   'P 1'
_cell_length_a   9.42800000
_cell_length_b   22.41500000
_cell_length_c   10.05100000
_cell_angle_alpha   90.00000000
_cell_angle_beta   102.12000000
_cell_angle_gamma   90.00000000
_symmetry_Int_Tables_number   1
_chemical_formula_structural   Dy2H5C14(NO4)3
_chemical_formula_sum   'Dy8 H20 C56 N12 O48'
_cell_volume   2076.71858778
_cell_formula_units_Z   4
loop_
 _symmetry_equiv_pos_site_id
 _symmetry_equiv_pos_as_xyz
  1  'x, y, z'
loop_
 _atom_site_type_symbol
 _atom_site_label
 _atom_site_symmetry_multiplicity
 _atom_site_fract_x
 _atom_site_fract_y
 _atom_site_fract_z
 _atom_site_occupancy
  Dy  Dy0  1  0.25050000  0.27717000  0.04663000  1.0
  Dy  Dy1  1  0.71833000  0.43461000  0.85831000  1.0
  Dy  Dy2  1  0.74950000  0.77717000  0.45337000  1.0
  Dy  Dy3  1  0.28167000  0.93461000  0.64169000  1.0
  Dy  Dy4  1  0.74950000  0.72283000  0.95337000  1.0
  Dy  Dy5  1  0.28167000  0.56539000  0.14169000  1.0
  Dy  Dy6  1  0.25050000  0.22283000  0.54663000  1.0
  Dy  Dy7  1  0.71833000  0.06539000  0.35831000  1.0
  H  H8  1  0.52406000  0.42668000  0.32141000  1.0
  H  H9  1  0.72757000  0.49935000  0.31608000  1.0
  H  H10  1  0.89464000  0.57994000  0.35309000  1.0
  H  H11  1  0.97965000  0.61435000  0.57603000  1.0
  H  H12  1  0.90647000  0.56700000  0.75531000  1.0
  H  H13  1  0.47594000  0.92668000  0.17859000  1.0
  H  H14  1  0.27243000  0.99935000  0.18392000  1.0
  H  H15  1  0.10536000  0.07994000  0.14691000  1.0
  H  H16  1  0.02035000  0.11435000  0.92397000  1.0
  H  H17  1  0.09353000  0.06700000  0.74469000  1.0
  H  H18  1  0.47594000  0.57332000  0.67859000  1.0
  H  H19  1  0.27243000  0.50065000  0.68392000  1.0
  H  H20  1  0.10536000  0.42006000  0.64691000  1.0
  H  H21  1  0.02035000  0.38565000  0.42397000  1.0
  H  H22  1  0.09353000  0.43300000  0.24469000  1.0
  H  H23  1  0.52406000  0.07332000  0.82141000  1.0
  H  H24  1  0.72757000  0.00065000  0.81608000  1.0
  H  H25  1  0.89464000  0.92006000  0.85309000  1.0
  H  H26  1  0.97965000  0.88565000  0.07603000  1.0
  H  H27  1  0.90647000  0.93300000  0.25531000  1.0
  C  C28  1  0.45600000  0.36928000  0.44880000  1.0
  C  C29  1  0.49800000  0.37080000  0.58940000  1.0
  C  C30  1  0.61930000  0.44017000  0.51170000  1.0
  C  C31  1  0.72350000  0.48952000  0.51850000  1.0
  C  C32  1  0.76490000  0.51421000  0.40510000  1.0
  C  C33  1  0.86330000  0.56168000  0.42720000  1.0
  C  C34  1  0.91440000  0.58159000  0.55880000  1.0
  C  C35  1  0.86930000  0.55318000  0.66540000  1.0
  C  C36  1  0.35780000  0.33023000  0.34970000  1.0
  C  C37  1  0.46170000  0.33826000  0.70680000  1.0
  C  C38  1  0.52090000  0.47858000  0.06200000  1.0
  C  C39  1  0.04520000  0.47976000  0.96250000  1.0
  C  C40  1  0.95300000  0.34932000  0.02630000  1.0
  C  C41  1  0.93680000  0.32420000  0.88010000  1.0
  C  C42  1  0.54400000  0.86928000  0.05120000  1.0
  C  C43  1  0.50200000  0.87080000  0.91060000  1.0
  C  C44  1  0.38070000  0.94017000  0.98830000  1.0
  C  C45  1  0.27650000  0.98952000  0.98150000  1.0
  C  C46  1  0.23510000  0.01421000  0.09490000  1.0
  C  C47  1  0.13670000  0.06168000  0.07280000  1.0
  C  C48  1  0.08560000  0.08159000  0.94120000  1.0
  C  C49  1  0.13070000  0.05318000  0.83460000  1.0
  C  C50  1  0.64220000  0.83023000  0.15030000  1.0
  C  C51  1  0.53830000  0.83826000  0.79320000  1.0
  C  C52  1  0.47910000  0.97858000  0.43800000  1.0
  C  C53  1  0.95480000  0.97976000  0.53750000  1.0
  C  C54  1  0.04700000  0.84932000  0.47370000  1.0
  C  C55  1  0.06320000  0.82420000  0.61990000  1.0
  C  C56  1  0.54400000  0.63072000  0.55120000  1.0
  C  C57  1  0.50200000  0.62920000  0.41060000  1.0
  C  C58  1  0.38070000  0.55983000  0.48830000  1.0
  C  C59  1  0.27650000  0.51048000  0.48150000  1.0
  C  C60  1  0.23510000  0.48579000  0.59490000  1.0
  C  C61  1  0.13670000  0.43832000  0.57280000  1.0
  C  C62  1  0.08560000  0.41841000  0.44120000  1.0
  C  C63  1  0.13070000  0.44682000  0.33460000  1.0
  C  C64  1  0.64220000  0.66977000  0.65030000  1.0
  C  C65  1  0.53830000  0.66174000  0.29320000  1.0
  C  C66  1  0.47910000  0.52142000  0.93800000  1.0
  C  C67  1  0.95480000  0.52024000  0.03750000  1.0
  C  C68  1  0.04700000  0.65068000  0.97370000  1.0
  C  C69  1  0.06320000  0.67580000  0.11990000  1.0
  C  C70  1  0.45600000  0.13072000  0.94880000  1.0
  C  C71  1  0.49800000  0.12920000  0.08940000  1.0
  C  C72  1  0.61930000  0.05983000  0.01170000  1.0
  C  C73  1  0.72350000  0.01048000  0.01850000  1.0
  C  C74  1  0.76490000  0.98579000  0.90510000  1.0
  C  C75  1  0.86330000  0.93832000  0.92720000  1.0
  C  C76  1  0.91440000  0.91841000  0.05880000  1.0
  C  C77  1  0.86930000  0.94682000  0.16540000  1.0
  C  C78  1  0.35780000  0.16977000  0.84970000  1.0
  C  C79  1  0.46170000  0.16174000  0.20680000  1.0
  C  C80  1  0.52090000  0.02142000  0.56200000  1.0
  C  C81  1  0.04520000  0.02024000  0.46250000  1.0
  C  C82  1  0.95300000  0.15068000  0.52630000  1.0
  C  C83  1  0.93680000  0.17580000  0.38010000  1.0
  N  N84  1  0.59830000  0.41520000  0.62540000  1.0
  N  N85  1  0.53410000  0.41369000  0.40250000  1.0
  N  N86  1  0.77660000  0.50743000  0.64830000  1.0
  N  N87  1  0.40170000  0.91520000  0.87460000  1.0
  N  N88  1  0.46590000  0.91369000  0.09750000  1.0
  N  N89  1  0.22340000  0.00743000  0.85170000  1.0
  N  N90  1  0.40170000  0.58480000  0.37460000  1.0
  N  N91  1  0.46590000  0.58631000  0.59750000  1.0
  N  N92  1  0.22340000  0.49257000  0.35170000  1.0
  N  N93  1  0.59830000  0.08480000  0.12540000  1.0
  N  N94  1  0.53410000  0.08631000  0.90250000  1.0
  N  N95  1  0.77660000  0.99257000  0.14830000  1.0
  O  O96  1  0.06770000  0.33781000  0.10940000  1.0
  O  O97  1  0.03430000  0.28800000  0.86350000  1.0
  O  O98  1  0.83030000  0.34248000  0.79130000  1.0
  O  O99  1  0.84900000  0.38065000  0.04880000  1.0
  O  O100  1  0.52420000  0.35985000  0.82310000  1.0
  O  O101  1  0.37760000  0.29458000  0.69370000  1.0
  O  O102  1  0.27710000  0.29313000  0.39140000  1.0
  O  O103  1  0.36510000  0.33741000  0.22730000  1.0
  O  O104  1  0.60130000  0.43610000  0.05090000  1.0
  O  O105  1  0.46950000  0.49149000  0.16570000  1.0
  O  O106  1  0.97690000  0.44787000  0.86870000  1.0
  O  O107  1  0.18080000  0.48171000  0.00470000  1.0
  O  O108  1  0.93230000  0.83781000  0.39060000  1.0
  O  O109  1  0.96570000  0.78800000  0.63650000  1.0
  O  O110  1  0.16970000  0.84248000  0.70870000  1.0
  O  O111  1  0.15100000  0.88065000  0.45120000  1.0
  O  O112  1  0.47580000  0.85985000  0.67690000  1.0
  O  O113  1  0.62240000  0.79458000  0.80630000  1.0
  O  O114  1  0.72290000  0.79313000  0.10860000  1.0
  O  O115  1  0.63490000  0.83741000  0.27270000  1.0
  O  O116  1  0.39870000  0.93610000  0.44910000  1.0
  O  O117  1  0.53050000  0.99149000  0.33430000  1.0
  O  O118  1  0.02310000  0.94787000  0.63130000  1.0
  O  O119  1  0.81920000  0.98171000  0.49530000  1.0
  O  O120  1  0.93230000  0.66219000  0.89060000  1.0
  O  O121  1  0.96570000  0.71200000  0.13650000  1.0
  O  O122  1  0.16970000  0.65752000  0.20870000  1.0
  O  O123  1  0.15100000  0.61935000  0.95120000  1.0
  O  O124  1  0.47580000  0.64015000  0.17690000  1.0
  O  O125  1  0.62240000  0.70542000  0.30630000  1.0
  O  O126  1  0.72290000  0.70687000  0.60860000  1.0
  O  O127  1  0.63490000  0.66259000  0.77270000  1.0
  O  O128  1  0.39870000  0.56390000  0.94910000  1.0
  O  O129  1  0.53050000  0.50851000  0.83430000  1.0
  O  O130  1  0.02310000  0.55213000  0.13130000  1.0
  O  O131  1  0.81920000  0.51829000  0.99530000  1.0
  O  O132  1  0.06770000  0.16219000  0.60940000  1.0
  O  O133  1  0.03430000  0.21200000  0.36350000  1.0
  O  O134  1  0.83030000  0.15752000  0.29130000  1.0
  O  O135  1  0.84900000  0.11935000  0.54880000  1.0
  O  O136  1  0.52420000  0.14015000  0.32310000  1.0
  O  O137  1  0.37760000  0.20542000  0.19370000  1.0
  O  O138  1  0.27710000  0.20687000  0.89140000  1.0
  O  O139  1  0.36510000  0.16259000  0.72730000  1.0
  O  O140  1  0.60130000  0.06390000  0.55090000  1.0
  O  O141  1  0.46950000  0.00851000  0.66570000  1.0
  O  O142  1  0.97690000  0.05213000  0.36870000  1.0
  O  O143  1  0.18080000  0.01829000  0.50470000  1.0
