# generated using pymatgen
data_Ag2BH20W12C24(N4O17)2
_symmetry_space_group_name_H-M   'P 1'
_cell_length_a   26.66400000
_cell_length_b   20.02200000
_cell_length_c   12.93700000
_cell_angle_alpha   90.00000000
_cell_angle_beta   90.00000000
_cell_angle_gamma   90.00000000
_symmetry_Int_Tables_number   1
_chemical_formula_structural   Ag2BH20W12C24(N4O17)2
_chemical_formula_sum   'Ag8 B4 H80 W48 C96 N32 O136'
_cell_volume   6906.63230770
_cell_formula_units_Z   4
loop_
 _symmetry_equiv_pos_site_id
 _symmetry_equiv_pos_as_xyz
  1  'x, y, z'
loop_
 _atom_site_type_symbol
 _atom_site_label
 _atom_site_symmetry_multiplicity
 _atom_site_fract_x
 _atom_site_fract_y
 _atom_site_fract_z
 _atom_site_occupancy
  Ag  Ag0  1  0.25710000  0.10590000  0.39080000  1.0
  Ag  Ag1  1  0.24290000  0.89410000  0.89080000  1.0
  Ag  Ag2  1  0.74290000  0.60590000  0.60920000  1.0
  Ag  Ag3  1  0.75710000  0.39410000  0.10920000  1.0
  Ag  Ag4  1  0.74290000  0.89410000  0.60920000  1.0
  Ag  Ag5  1  0.75710000  0.10590000  0.10920000  1.0
  Ag  Ag6  1  0.25710000  0.39410000  0.39080000  1.0
  Ag  Ag7  1  0.24290000  0.60590000  0.89080000  1.0
  B  B8  1  0.26370000  0.25000000  0.89600000  1.0
  B  B9  1  0.23630000  0.75000000  0.39600000  1.0
  B  B10  1  0.73630000  0.75000000  0.10400000  1.0
  B  B11  1  0.76370000  0.25000000  0.60400000  1.0
  H  H12  1  0.36560000  0.12790000  0.27740000  1.0
  H  H13  1  0.65300000  0.07400000  0.24020000  1.0
  H  H14  1  0.66560000  0.17750000  0.97970000  1.0
  H  H15  1  0.49570000  0.99320000  0.34390000  1.0
  H  H16  1  0.42960000  0.01120000  0.47930000  1.0
  H  H17  1  0.34240000  0.01850000  0.51870000  1.0
  H  H18  1  0.44500000  0.17120000  0.24370000  1.0
  H  H19  1  0.52000000  0.18910000  0.17210000  1.0
  H  H20  1  0.57800000  0.17610000  0.02180000  1.0
  H  H21  1  0.57200000  0.01780000  0.27500000  1.0
  H  H22  1  0.13440000  0.87210000  0.77740000  1.0
  H  H23  1  0.84700000  0.92600000  0.74020000  1.0
  H  H24  1  0.83440000  0.82250000  0.47970000  1.0
  H  H25  1  0.00430000  0.00680000  0.84390000  1.0
  H  H26  1  0.07040000  0.98880000  0.97930000  1.0
  H  H27  1  0.15760000  0.98150000  0.01870000  1.0
  H  H28  1  0.05500000  0.82880000  0.74370000  1.0
  H  H29  1  0.98000000  0.81090000  0.67210000  1.0
  H  H30  1  0.92200000  0.82390000  0.52180000  1.0
  H  H31  1  0.92800000  0.98220000  0.77500000  1.0
  H  H32  1  0.63440000  0.62790000  0.72260000  1.0
  H  H33  1  0.34700000  0.57400000  0.75980000  1.0
  H  H34  1  0.33440000  0.67750000  0.02030000  1.0
  H  H35  1  0.50430000  0.49320000  0.65610000  1.0
  H  H36  1  0.57040000  0.51120000  0.52070000  1.0
  H  H37  1  0.65760000  0.51850000  0.48130000  1.0
  H  H38  1  0.55500000  0.67120000  0.75630000  1.0
  H  H39  1  0.48000000  0.68910000  0.82790000  1.0
  H  H40  1  0.42200000  0.67610000  0.97820000  1.0
  H  H41  1  0.42800000  0.51780000  0.72500000  1.0
  H  H42  1  0.86560000  0.37210000  0.22260000  1.0
  H  H43  1  0.15300000  0.42600000  0.25980000  1.0
  H  H44  1  0.16560000  0.32250000  0.52030000  1.0
  H  H45  1  0.99570000  0.50680000  0.15610000  1.0
  H  H46  1  0.92960000  0.48880000  0.02070000  1.0
  H  H47  1  0.84240000  0.48150000  0.98130000  1.0
  H  H48  1  0.94500000  0.32880000  0.25630000  1.0
  H  H49  1  0.02000000  0.31090000  0.32790000  1.0
  H  H50  1  0.07800000  0.32390000  0.47820000  1.0
  H  H51  1  0.07200000  0.48220000  0.22500000  1.0
  H  H52  1  0.63440000  0.87210000  0.72260000  1.0
  H  H53  1  0.34700000  0.92600000  0.75980000  1.0
  H  H54  1  0.33440000  0.82250000  0.02030000  1.0
  H  H55  1  0.50430000  0.00680000  0.65610000  1.0
  H  H56  1  0.57040000  0.98880000  0.52070000  1.0
  H  H57  1  0.65760000  0.98150000  0.48130000  1.0
  H  H58  1  0.55500000  0.82880000  0.75630000  1.0
  H  H59  1  0.48000000  0.81090000  0.82790000  1.0
  H  H60  1  0.42200000  0.82390000  0.97820000  1.0
  H  H61  1  0.42800000  0.98220000  0.72500000  1.0
  H  H62  1  0.86560000  0.12790000  0.22260000  1.0
  H  H63  1  0.15300000  0.07400000  0.25980000  1.0
  H  H64  1  0.16560000  0.17750000  0.52030000  1.0
  H  H65  1  0.99570000  0.99320000  0.15610000  1.0
  H  H66  1  0.92960000  0.01120000  0.02070000  1.0
  H  H67  1  0.84240000  0.01850000  0.98130000  1.0
  H  H68  1  0.94500000  0.17120000  0.25630000  1.0
  H  H69  1  0.02000000  0.18910000  0.32790000  1.0
  H  H70  1  0.07800000  0.17610000  0.47820000  1.0
  H  H71  1  0.07200000  0.01780000  0.22500000  1.0
  H  H72  1  0.36560000  0.37210000  0.27740000  1.0
  H  H73  1  0.65300000  0.42600000  0.24020000  1.0
  H  H74  1  0.66560000  0.32250000  0.97970000  1.0
  H  H75  1  0.49570000  0.50680000  0.34390000  1.0
  H  H76  1  0.42960000  0.48880000  0.47930000  1.0
  H  H77  1  0.34240000  0.48150000  0.51870000  1.0
  H  H78  1  0.44500000  0.32880000  0.24370000  1.0
  H  H79  1  0.52000000  0.31090000  0.17210000  1.0
  H  H80  1  0.57800000  0.32390000  0.02180000  1.0
  H  H81  1  0.57200000  0.48220000  0.27500000  1.0
  H  H82  1  0.13440000  0.62790000  0.77740000  1.0
  H  H83  1  0.84700000  0.57400000  0.74020000  1.0
  H  H84  1  0.83440000  0.67750000  0.47970000  1.0
  H  H85  1  0.00430000  0.49320000  0.84390000  1.0
  H  H86  1  0.07040000  0.51120000  0.97930000  1.0
  H  H87  1  0.15760000  0.51850000  0.01870000  1.0
  H  H88  1  0.05500000  0.67120000  0.74370000  1.0
  H  H89  1  0.98000000  0.68910000  0.67210000  1.0
  H  H90  1  0.92200000  0.67610000  0.52180000  1.0
  H  H91  1  0.92800000  0.51780000  0.77500000  1.0
  W  W92  1  0.15487000  0.16719000  0.96933000  1.0
  W  W93  1  0.26672000  0.16822000  0.12835000  1.0
  W  W94  1  0.26635000  0.07766000  0.88591000  1.0
  W  W95  1  0.36799000  0.15892000  0.81162000  1.0
  W  W96  1  0.26645000  0.15955000  0.66603000  1.0
  W  W97  1  0.34513000  0.83281000  0.46933000  1.0
  W  W98  1  0.23328000  0.83178000  0.62835000  1.0
  W  W99  1  0.23365000  0.92234000  0.38591000  1.0
  W  W100  1  0.13201000  0.84108000  0.31162000  1.0
  W  W101  1  0.23355000  0.84045000  0.16603000  1.0
  W  W102  1  0.84513000  0.66719000  0.03067000  1.0
  W  W103  1  0.73328000  0.66822000  0.87165000  1.0
  W  W104  1  0.73365000  0.57766000  0.11409000  1.0
  W  W105  1  0.63201000  0.65892000  0.18838000  1.0
  W  W106  1  0.73355000  0.65955000  0.33397000  1.0
  W  W107  1  0.65487000  0.33281000  0.53067000  1.0
  W  W108  1  0.76672000  0.33178000  0.37165000  1.0
  W  W109  1  0.76635000  0.42234000  0.61409000  1.0
  W  W110  1  0.86799000  0.34108000  0.68838000  1.0
  W  W111  1  0.76645000  0.34045000  0.83397000  1.0
  W  W112  1  0.84513000  0.83281000  0.03067000  1.0
  W  W113  1  0.73328000  0.83178000  0.87165000  1.0
  W  W114  1  0.73365000  0.92234000  0.11409000  1.0
  W  W115  1  0.63201000  0.84108000  0.18838000  1.0
  W  W116  1  0.73355000  0.84045000  0.33397000  1.0
  W  W117  1  0.65487000  0.16719000  0.53067000  1.0
  W  W118  1  0.76672000  0.16822000  0.37165000  1.0
  W  W119  1  0.76635000  0.07766000  0.61409000  1.0
  W  W120  1  0.86799000  0.15892000  0.68838000  1.0
  W  W121  1  0.76645000  0.15955000  0.83397000  1.0
  W  W122  1  0.15487000  0.33281000  0.96933000  1.0
  W  W123  1  0.26672000  0.33178000  0.12835000  1.0
  W  W124  1  0.26635000  0.42234000  0.88591000  1.0
  W  W125  1  0.36799000  0.34108000  0.81162000  1.0
  W  W126  1  0.26645000  0.34045000  0.66603000  1.0
  W  W127  1  0.34513000  0.66719000  0.46933000  1.0
  W  W128  1  0.23328000  0.66822000  0.62835000  1.0
  W  W129  1  0.23365000  0.57766000  0.38591000  1.0
  W  W130  1  0.13201000  0.65892000  0.31162000  1.0
  W  W131  1  0.23355000  0.65955000  0.16603000  1.0
  W  W132  1  0.15469000  0.25000000  0.74765000  1.0
  W  W133  1  0.36799000  0.25000000  0.05493000  1.0
  W  W134  1  0.34531000  0.75000000  0.24765000  1.0
  W  W135  1  0.13201000  0.75000000  0.55493000  1.0
  W  W136  1  0.84531000  0.75000000  0.25235000  1.0
  W  W137  1  0.63201000  0.75000000  0.94507000  1.0
  W  W138  1  0.65469000  0.25000000  0.75235000  1.0
  W  W139  1  0.86799000  0.25000000  0.44507000  1.0
  C  C140  1  0.37030000  0.09870000  0.33200000  1.0
  C  C141  1  0.64620000  0.09950000  0.18200000  1.0
  C  C142  1  0.65240000  0.15670000  0.03800000  1.0
  C  C143  1  0.50110000  0.03400000  0.31100000  1.0
  C  C144  1  0.46320000  0.08140000  0.30500000  1.0
  C  C145  1  0.40610000  0.03550000  0.44200000  1.0
  C  C146  1  0.35810000  0.03960000  0.46300000  1.0
  C  C147  1  0.47050000  0.13980000  0.25000000  1.0
  C  C148  1  0.51510000  0.14900000  0.20800000  1.0
  C  C149  1  0.60360000  0.15640000  0.06000000  1.0
  C  C150  1  0.55540000  0.10540000  0.21300000  1.0
  C  C151  1  0.54600000  0.04840000  0.26700000  1.0
  C  C152  1  0.12970000  0.90130000  0.83200000  1.0
  C  C153  1  0.85380000  0.90050000  0.68200000  1.0
  C  C154  1  0.84760000  0.84330000  0.53800000  1.0
  C  C155  1  0.99890000  0.96600000  0.81100000  1.0
  C  C156  1  0.03680000  0.91860000  0.80500000  1.0
  C  C157  1  0.09390000  0.96450000  0.94200000  1.0
  C  C158  1  0.14190000  0.96040000  0.96300000  1.0
  C  C159  1  0.02950000  0.86020000  0.75000000  1.0
  C  C160  1  0.98490000  0.85100000  0.70800000  1.0
  C  C161  1  0.89640000  0.84360000  0.56000000  1.0
  C  C162  1  0.94460000  0.89460000  0.71300000  1.0
  C  C163  1  0.95400000  0.95160000  0.76700000  1.0
  C  C164  1  0.62970000  0.59870000  0.66800000  1.0
  C  C165  1  0.35380000  0.59950000  0.81800000  1.0
  C  C166  1  0.34760000  0.65670000  0.96200000  1.0
  C  C167  1  0.49890000  0.53400000  0.68900000  1.0
  C  C168  1  0.53680000  0.58140000  0.69500000  1.0
  C  C169  1  0.59390000  0.53550000  0.55800000  1.0
  C  C170  1  0.64190000  0.53960000  0.53700000  1.0
  C  C171  1  0.52950000  0.63980000  0.75000000  1.0
  C  C172  1  0.48490000  0.64900000  0.79200000  1.0
  C  C173  1  0.39640000  0.65640000  0.94000000  1.0
  C  C174  1  0.44460000  0.60540000  0.78700000  1.0
  C  C175  1  0.45400000  0.54840000  0.73300000  1.0
  C  C176  1  0.87030000  0.40130000  0.16800000  1.0
  C  C177  1  0.14620000  0.40050000  0.31800000  1.0
  C  C178  1  0.15240000  0.34330000  0.46200000  1.0
  C  C179  1  0.00110000  0.46600000  0.18900000  1.0
  C  C180  1  0.96320000  0.41860000  0.19500000  1.0
  C  C181  1  0.90610000  0.46450000  0.05800000  1.0
  C  C182  1  0.85810000  0.46040000  0.03700000  1.0
  C  C183  1  0.97050000  0.36020000  0.25000000  1.0
  C  C184  1  0.01510000  0.35100000  0.29200000  1.0
  C  C185  1  0.10360000  0.34360000  0.44000000  1.0
  C  C186  1  0.05540000  0.39460000  0.28700000  1.0
  C  C187  1  0.04600000  0.45160000  0.23300000  1.0
  C  C188  1  0.62970000  0.90130000  0.66800000  1.0
  C  C189  1  0.35380000  0.90050000  0.81800000  1.0
  C  C190  1  0.34760000  0.84330000  0.96200000  1.0
  C  C191  1  0.49890000  0.96600000  0.68900000  1.0
  C  C192  1  0.53680000  0.91860000  0.69500000  1.0
  C  C193  1  0.59390000  0.96450000  0.55800000  1.0
  C  C194  1  0.64190000  0.96040000  0.53700000  1.0
  C  C195  1  0.52950000  0.86020000  0.75000000  1.0
  C  C196  1  0.48490000  0.85100000  0.79200000  1.0
  C  C197  1  0.39640000  0.84360000  0.94000000  1.0
  C  C198  1  0.44460000  0.89460000  0.78700000  1.0
  C  C199  1  0.45400000  0.95160000  0.73300000  1.0
  C  C200  1  0.87030000  0.09870000  0.16800000  1.0
  C  C201  1  0.14620000  0.09950000  0.31800000  1.0
  C  C202  1  0.15240000  0.15670000  0.46200000  1.0
  C  C203  1  0.00110000  0.03400000  0.18900000  1.0
  C  C204  1  0.96320000  0.08140000  0.19500000  1.0
  C  C205  1  0.90610000  0.03550000  0.05800000  1.0
  C  C206  1  0.85810000  0.03960000  0.03700000  1.0
  C  C207  1  0.97050000  0.13980000  0.25000000  1.0
  C  C208  1  0.01510000  0.14900000  0.29200000  1.0
  C  C209  1  0.10360000  0.15640000  0.44000000  1.0
  C  C210  1  0.05540000  0.10540000  0.28700000  1.0
  C  C211  1  0.04600000  0.04840000  0.23300000  1.0
  C  C212  1  0.37030000  0.40130000  0.33200000  1.0
  C  C213  1  0.64620000  0.40050000  0.18200000  1.0
  C  C214  1  0.65240000  0.34330000  0.03800000  1.0
  C  C215  1  0.50110000  0.46600000  0.31100000  1.0
  C  C216  1  0.46320000  0.41860000  0.30500000  1.0
  C  C217  1  0.40610000  0.46450000  0.44200000  1.0
  C  C218  1  0.35810000  0.46040000  0.46300000  1.0
  C  C219  1  0.47050000  0.36020000  0.25000000  1.0
  C  C220  1  0.51510000  0.35100000  0.20800000  1.0
  C  C221  1  0.60360000  0.34360000  0.06000000  1.0
  C  C222  1  0.55540000  0.39460000  0.21300000  1.0
  C  C223  1  0.54600000  0.45160000  0.26700000  1.0
  C  C224  1  0.12970000  0.59870000  0.83200000  1.0
  C  C225  1  0.85380000  0.59950000  0.68200000  1.0
  C  C226  1  0.84760000  0.65670000  0.53800000  1.0
  C  C227  1  0.99890000  0.53400000  0.81100000  1.0
  C  C228  1  0.03680000  0.58140000  0.80500000  1.0
  C  C229  1  0.09390000  0.53550000  0.94200000  1.0
  C  C230  1  0.14190000  0.53960000  0.96300000  1.0
  C  C231  1  0.02950000  0.63980000  0.75000000  1.0
  C  C232  1  0.98490000  0.64900000  0.70800000  1.0
  C  C233  1  0.89640000  0.65640000  0.56000000  1.0
  C  C234  1  0.94460000  0.60540000  0.71300000  1.0
  C  C235  1  0.95400000  0.54840000  0.76700000  1.0
  N  N236  1  0.33540000  0.07830000  0.39400000  1.0
  N  N237  1  0.68410000  0.12080000  0.11500000  1.0
  N  N238  1  0.41540000  0.07050000  0.36070000  1.0
  N  N239  1  0.59850000  0.11870000  0.15600000  1.0
  N  N240  1  0.16460000  0.92170000  0.89400000  1.0
  N  N241  1  0.81590000  0.87920000  0.61500000  1.0
  N  N242  1  0.08460000  0.92950000  0.86070000  1.0
  N  N243  1  0.90150000  0.88130000  0.65600000  1.0
  N  N244  1  0.66460000  0.57830000  0.60600000  1.0
  N  N245  1  0.31590000  0.62080000  0.88500000  1.0
  N  N246  1  0.58460000  0.57050000  0.63930000  1.0
  N  N247  1  0.40150000  0.61870000  0.84400000  1.0
  N  N248  1  0.83540000  0.42170000  0.10600000  1.0
  N  N249  1  0.18410000  0.37920000  0.38500000  1.0
  N  N250  1  0.91540000  0.42950000  0.13930000  1.0
  N  N251  1  0.09850000  0.38130000  0.34400000  1.0
  N  N252  1  0.66460000  0.92170000  0.60600000  1.0
  N  N253  1  0.31590000  0.87920000  0.88500000  1.0
  N  N254  1  0.58460000  0.92950000  0.63930000  1.0
  N  N255  1  0.40150000  0.88130000  0.84400000  1.0
  N  N256  1  0.83540000  0.07830000  0.10600000  1.0
  N  N257  1  0.18410000  0.12080000  0.38500000  1.0
  N  N258  1  0.91540000  0.07050000  0.13930000  1.0
  N  N259  1  0.09850000  0.11870000  0.34400000  1.0
  N  N260  1  0.33540000  0.42170000  0.39400000  1.0
  N  N261  1  0.68410000  0.37920000  0.11500000  1.0
  N  N262  1  0.41540000  0.42950000  0.36070000  1.0
  N  N263  1  0.59850000  0.38130000  0.15600000  1.0
  N  N264  1  0.16460000  0.57830000  0.89400000  1.0
  N  N265  1  0.81590000  0.62080000  0.61500000  1.0
  N  N266  1  0.08460000  0.57050000  0.86070000  1.0
  N  N267  1  0.90150000  0.61870000  0.65600000  1.0
  O  O268  1  0.28180000  0.18840000  0.84110000  1.0
  O  O269  1  0.25640000  0.07810000  0.74370000  1.0
  O  O270  1  0.37820000  0.18380000  0.95320000  1.0
  O  O271  1  0.33750000  0.18450000  0.14000000  1.0
  O  O272  1  0.20000000  0.17140000  0.07850000  1.0
  O  O273  1  0.12600000  0.18480000  0.83530000  1.0
  O  O274  1  0.20060000  0.31450000  0.69670000  1.0
  O  O275  1  0.33770000  0.14600000  0.68110000  1.0
  O  O276  1  0.33720000  0.07870000  0.85590000  1.0
  O  O277  1  0.27980000  0.10570000  0.02310000  1.0
  O  O278  1  0.26080000  0.11620000  0.23400000  1.0
  O  O279  1  0.19890000  0.10720000  0.90260000  1.0
  O  O280  1  0.25890000  0.12610000  0.54750000  1.0
  O  O281  1  0.25990000  0.99210000  0.90480000  1.0
  O  O282  1  0.21820000  0.81160000  0.34110000  1.0
  O  O283  1  0.24360000  0.92190000  0.24370000  1.0
  O  O284  1  0.12180000  0.81620000  0.45320000  1.0
  O  O285  1  0.16250000  0.81550000  0.64000000  1.0
  O  O286  1  0.30000000  0.82860000  0.57850000  1.0
  O  O287  1  0.37400000  0.81520000  0.33530000  1.0
  O  O288  1  0.29940000  0.68550000  0.19670000  1.0
  O  O289  1  0.16230000  0.85400000  0.18110000  1.0
  O  O290  1  0.16280000  0.92130000  0.35590000  1.0
  O  O291  1  0.22020000  0.89430000  0.52310000  1.0
  O  O292  1  0.23920000  0.88380000  0.73400000  1.0
  O  O293  1  0.30110000  0.89280000  0.40260000  1.0
  O  O294  1  0.24110000  0.87390000  0.04750000  1.0
  O  O295  1  0.24010000  0.00790000  0.40480000  1.0
  O  O296  1  0.71820000  0.68840000  0.15890000  1.0
  O  O297  1  0.74360000  0.57810000  0.25630000  1.0
  O  O298  1  0.62180000  0.68380000  0.04680000  1.0
  O  O299  1  0.66250000  0.68450000  0.86000000  1.0
  O  O300  1  0.80000000  0.67140000  0.92150000  1.0
  O  O301  1  0.87400000  0.68480000  0.16470000  1.0
  O  O302  1  0.79940000  0.81450000  0.30330000  1.0
  O  O303  1  0.66230000  0.64600000  0.31890000  1.0
  O  O304  1  0.66280000  0.57870000  0.14410000  1.0
  O  O305  1  0.72020000  0.60570000  0.97690000  1.0
  O  O306  1  0.73920000  0.61620000  0.76600000  1.0
  O  O307  1  0.80110000  0.60720000  0.09740000  1.0
  O  O308  1  0.74110000  0.62610000  0.45250000  1.0
  O  O309  1  0.74010000  0.49210000  0.09520000  1.0
  O  O310  1  0.78180000  0.31160000  0.65890000  1.0
  O  O311  1  0.75640000  0.42190000  0.75630000  1.0
  O  O312  1  0.87820000  0.31620000  0.54680000  1.0
  O  O313  1  0.83750000  0.31550000  0.36000000  1.0
  O  O314  1  0.70000000  0.32860000  0.42150000  1.0
  O  O315  1  0.62600000  0.31520000  0.66470000  1.0
  O  O316  1  0.70060000  0.18550000  0.80330000  1.0
  O  O317  1  0.83770000  0.35400000  0.81890000  1.0
  O  O318  1  0.83720000  0.42130000  0.64410000  1.0
  O  O319  1  0.77980000  0.39430000  0.47690000  1.0
  O  O320  1  0.76080000  0.38380000  0.26600000  1.0
  O  O321  1  0.69890000  0.39280000  0.59740000  1.0
  O  O322  1  0.75890000  0.37390000  0.95250000  1.0
  O  O323  1  0.75990000  0.50790000  0.59520000  1.0
  O  O324  1  0.71820000  0.81160000  0.15890000  1.0
  O  O325  1  0.74360000  0.92190000  0.25630000  1.0
  O  O326  1  0.62180000  0.81620000  0.04680000  1.0
  O  O327  1  0.66250000  0.81550000  0.86000000  1.0
  O  O328  1  0.80000000  0.82860000  0.92150000  1.0
  O  O329  1  0.87400000  0.81520000  0.16470000  1.0
  O  O330  1  0.79940000  0.68550000  0.30330000  1.0
  O  O331  1  0.66230000  0.85400000  0.31890000  1.0
  O  O332  1  0.66280000  0.92130000  0.14410000  1.0
  O  O333  1  0.72020000  0.89430000  0.97690000  1.0
  O  O334  1  0.73920000  0.88380000  0.76600000  1.0
  O  O335  1  0.80110000  0.89280000  0.09740000  1.0
  O  O336  1  0.74110000  0.87390000  0.45250000  1.0
  O  O337  1  0.74010000  0.00790000  0.09520000  1.0
  O  O338  1  0.78180000  0.18840000  0.65890000  1.0
  O  O339  1  0.75640000  0.07810000  0.75630000  1.0
  O  O340  1  0.87820000  0.18380000  0.54680000  1.0
  O  O341  1  0.83750000  0.18450000  0.36000000  1.0
  O  O342  1  0.70000000  0.17140000  0.42150000  1.0
  O  O343  1  0.62600000  0.18480000  0.66470000  1.0
  O  O344  1  0.70060000  0.31450000  0.80330000  1.0
  O  O345  1  0.83770000  0.14600000  0.81890000  1.0
  O  O346  1  0.83720000  0.07870000  0.64410000  1.0
  O  O347  1  0.77980000  0.10570000  0.47690000  1.0
  O  O348  1  0.76080000  0.11620000  0.26600000  1.0
  O  O349  1  0.69890000  0.10720000  0.59740000  1.0
  O  O350  1  0.75890000  0.12610000  0.95250000  1.0
  O  O351  1  0.75990000  0.99210000  0.59520000  1.0
  O  O352  1  0.28180000  0.31160000  0.84110000  1.0
  O  O353  1  0.25640000  0.42190000  0.74370000  1.0
  O  O354  1  0.37820000  0.31620000  0.95320000  1.0
  O  O355  1  0.33750000  0.31550000  0.14000000  1.0
  O  O356  1  0.20000000  0.32860000  0.07850000  1.0
  O  O357  1  0.12600000  0.31520000  0.83530000  1.0
  O  O358  1  0.20060000  0.18550000  0.69670000  1.0
  O  O359  1  0.33770000  0.35400000  0.68110000  1.0
  O  O360  1  0.33720000  0.42130000  0.85590000  1.0
  O  O361  1  0.27980000  0.39430000  0.02310000  1.0
  O  O362  1  0.26080000  0.38380000  0.23400000  1.0
  O  O363  1  0.19890000  0.39280000  0.90260000  1.0
  O  O364  1  0.25890000  0.37390000  0.54750000  1.0
  O  O365  1  0.25990000  0.50790000  0.90480000  1.0
  O  O366  1  0.21820000  0.68840000  0.34110000  1.0
  O  O367  1  0.24360000  0.57810000  0.24370000  1.0
  O  O368  1  0.12180000  0.68380000  0.45320000  1.0
  O  O369  1  0.16250000  0.68450000  0.64000000  1.0
  O  O370  1  0.30000000  0.67140000  0.57850000  1.0
  O  O371  1  0.37400000  0.68480000  0.33530000  1.0
  O  O372  1  0.29940000  0.81450000  0.19670000  1.0
  O  O373  1  0.16230000  0.64600000  0.18110000  1.0
  O  O374  1  0.16280000  0.57870000  0.35590000  1.0
  O  O375  1  0.22020000  0.60570000  0.52310000  1.0
  O  O376  1  0.23920000  0.61620000  0.73400000  1.0
  O  O377  1  0.30110000  0.60720000  0.40260000  1.0
  O  O378  1  0.24110000  0.62610000  0.04750000  1.0
  O  O379  1  0.24010000  0.49210000  0.40480000  1.0
  O  O380  1  0.20750000  0.25000000  0.89460000  1.0
  O  O381  1  0.37630000  0.25000000  0.77560000  1.0
  O  O382  1  0.12710000  0.25000000  0.00760000  1.0
  O  O383  1  0.27970000  0.25000000  0.63600000  1.0
  O  O384  1  0.25670000  0.25000000  0.20100000  1.0
  O  O385  1  0.28420000  0.25000000  0.00400000  1.0
  O  O386  1  0.29250000  0.75000000  0.39460000  1.0
  O  O387  1  0.12370000  0.75000000  0.27560000  1.0
  O  O388  1  0.37290000  0.75000000  0.50760000  1.0
  O  O389  1  0.22030000  0.75000000  0.13600000  1.0
  O  O390  1  0.24330000  0.75000000  0.70100000  1.0
  O  O391  1  0.21580000  0.75000000  0.50400000  1.0
  O  O392  1  0.79250000  0.75000000  0.10540000  1.0
  O  O393  1  0.62370000  0.75000000  0.22440000  1.0
  O  O394  1  0.87290000  0.75000000  0.99240000  1.0
  O  O395  1  0.72030000  0.75000000  0.36400000  1.0
  O  O396  1  0.74330000  0.75000000  0.79900000  1.0
  O  O397  1  0.71580000  0.75000000  0.99600000  1.0
  O  O398  1  0.70750000  0.25000000  0.60540000  1.0
  O  O399  1  0.87630000  0.25000000  0.72440000  1.0
  O  O400  1  0.62710000  0.25000000  0.49240000  1.0
  O  O401  1  0.77970000  0.25000000  0.86400000  1.0
  O  O402  1  0.75670000  0.25000000  0.29900000  1.0
  O  O403  1  0.78420000  0.25000000  0.49600000  1.0
