# generated using pymatgen
data_MnH4AuC8N3O2
_symmetry_space_group_name_H-M   'P 1'
_cell_length_a   12.13300000
_cell_length_b   25.15600000
_cell_length_c   7.63730000
_cell_angle_alpha   90.00000000
_cell_angle_beta   93.31700000
_cell_angle_gamma   90.00000000
_symmetry_Int_Tables_number   1
_chemical_formula_structural   MnH4AuC8N3O2
_chemical_formula_sum   'Mn8 H32 Au8 C64 N24 O16'
_cell_volume   2327.13430018
_cell_formula_units_Z   8
loop_
 _symmetry_equiv_pos_site_id
 _symmetry_equiv_pos_as_xyz
  1  'x, y, z'
loop_
 _atom_site_type_symbol
 _atom_site_label
 _atom_site_symmetry_multiplicity
 _atom_site_fract_x
 _atom_site_fract_y
 _atom_site_fract_z
 _atom_site_occupancy
  Mn  Mn0  1  0.80938000  0.62358000  0.29714000  1.0
  Mn  Mn1  1  0.30938000  0.12358000  0.29714000  1.0
  Mn  Mn2  1  0.19062000  0.62358000  0.20286000  1.0
  Mn  Mn3  1  0.69062000  0.12358000  0.20286000  1.0
  Mn  Mn4  1  0.19062000  0.37642000  0.70286000  1.0
  Mn  Mn5  1  0.69062000  0.87642000  0.70286000  1.0
  Mn  Mn6  1  0.80938000  0.37642000  0.79714000  1.0
  Mn  Mn7  1  0.30938000  0.87642000  0.79714000  1.0
  H  H8  1  0.57860000  0.65430000  0.08630000  1.0
  H  H9  1  0.48260000  0.72730000  0.97680000  1.0
  H  H10  1  0.70590000  0.82230000  0.18660000  1.0
  H  H11  1  0.79320000  0.75070000  0.31870000  1.0
  H  H12  1  0.07860000  0.15430000  0.08630000  1.0
  H  H13  1  0.98260000  0.22730000  0.97680000  1.0
  H  H14  1  0.20590000  0.32230000  0.18660000  1.0
  H  H15  1  0.29320000  0.25070000  0.31870000  1.0
  H  H16  1  0.42140000  0.65430000  0.41370000  1.0
  H  H17  1  0.51740000  0.72730000  0.52320000  1.0
  H  H18  1  0.29410000  0.82230000  0.31340000  1.0
  H  H19  1  0.20680000  0.75070000  0.18130000  1.0
  H  H20  1  0.92140000  0.15430000  0.41370000  1.0
  H  H21  1  0.01740000  0.22730000  0.52320000  1.0
  H  H22  1  0.79410000  0.32230000  0.31340000  1.0
  H  H23  1  0.70680000  0.25070000  0.18130000  1.0
  H  H24  1  0.42140000  0.34570000  0.91370000  1.0
  H  H25  1  0.51740000  0.27270000  0.02320000  1.0
  H  H26  1  0.29410000  0.17770000  0.81340000  1.0
  H  H27  1  0.20680000  0.24930000  0.68130000  1.0
  H  H28  1  0.92140000  0.84570000  0.91370000  1.0
  H  H29  1  0.01740000  0.77270000  0.02320000  1.0
  H  H30  1  0.79410000  0.67770000  0.81340000  1.0
  H  H31  1  0.70680000  0.74930000  0.68130000  1.0
  H  H32  1  0.57860000  0.34570000  0.58630000  1.0
  H  H33  1  0.48260000  0.27270000  0.47680000  1.0
  H  H34  1  0.70590000  0.17770000  0.68660000  1.0
  H  H35  1  0.79320000  0.24930000  0.81870000  1.0
  H  H36  1  0.07860000  0.84570000  0.58630000  1.0
  H  H37  1  0.98260000  0.77270000  0.47680000  1.0
  H  H38  1  0.20590000  0.67770000  0.68660000  1.0
  H  H39  1  0.29320000  0.74930000  0.81870000  1.0
  Au  Au40  1  0.50000000  0.60729000  0.75000000  1.0
  Au  Au41  1  0.00000000  0.10729000  0.75000000  1.0
  Au  Au42  1  0.50000000  0.39271000  0.25000000  1.0
  Au  Au43  1  0.00000000  0.89271000  0.25000000  1.0
  Au  Au44  1  0.50000000  0.50000000  0.00000000  1.0
  Au  Au45  1  0.00000000  0.00000000  0.00000000  1.0
  Au  Au46  1  0.50000000  0.50000000  0.50000000  1.0
  Au  Au47  1  0.00000000  0.00000000  0.50000000  1.0
  C  C48  1  0.63230000  0.61230000  0.61080000  1.0
  C  C49  1  0.63070000  0.54070000  0.09420000  1.0
  C  C50  1  0.60570000  0.68830000  0.11010000  1.0
  C  C51  1  0.54910000  0.73260000  0.04120000  1.0
  C  C52  1  0.58430000  0.77930000  0.06250000  1.0
  C  C53  1  0.67880000  0.78800000  0.16730000  1.0
  C  C54  1  0.73180000  0.74480000  0.24240000  1.0
  C  C55  1  0.52790000  0.82740000  0.96910000  1.0
  C  C56  1  0.13230000  0.11230000  0.61080000  1.0
  C  C57  1  0.13070000  0.04070000  0.09420000  1.0
  C  C58  1  0.10570000  0.18830000  0.11010000  1.0
  C  C59  1  0.04910000  0.23260000  0.04120000  1.0
  C  C60  1  0.08430000  0.27930000  0.06250000  1.0
  C  C61  1  0.17880000  0.28800000  0.16730000  1.0
  C  C62  1  0.23180000  0.24480000  0.24240000  1.0
  C  C63  1  0.02790000  0.32740000  0.96910000  1.0
  C  C64  1  0.36770000  0.61230000  0.88920000  1.0
  C  C65  1  0.36930000  0.54070000  0.40580000  1.0
  C  C66  1  0.39430000  0.68830000  0.38990000  1.0
  C  C67  1  0.45090000  0.73260000  0.45880000  1.0
  C  C68  1  0.41570000  0.77930000  0.43750000  1.0
  C  C69  1  0.32120000  0.78800000  0.33270000  1.0
  C  C70  1  0.26820000  0.74480000  0.25760000  1.0
  C  C71  1  0.47210000  0.82740000  0.53090000  1.0
  C  C72  1  0.86770000  0.11230000  0.88920000  1.0
  C  C73  1  0.86930000  0.04070000  0.40580000  1.0
  C  C74  1  0.89430000  0.18830000  0.38990000  1.0
  C  C75  1  0.95090000  0.23260000  0.45880000  1.0
  C  C76  1  0.91570000  0.27930000  0.43750000  1.0
  C  C77  1  0.82120000  0.28800000  0.33270000  1.0
  C  C78  1  0.76820000  0.24480000  0.25760000  1.0
  C  C79  1  0.97210000  0.32740000  0.53090000  1.0
  C  C80  1  0.36770000  0.38770000  0.38920000  1.0
  C  C81  1  0.36930000  0.45930000  0.90580000  1.0
  C  C82  1  0.39430000  0.31170000  0.88990000  1.0
  C  C83  1  0.45090000  0.26740000  0.95880000  1.0
  C  C84  1  0.41570000  0.22070000  0.93750000  1.0
  C  C85  1  0.32120000  0.21200000  0.83270000  1.0
  C  C86  1  0.26820000  0.25520000  0.75760000  1.0
  C  C87  1  0.47210000  0.17260000  0.03090000  1.0
  C  C88  1  0.86770000  0.88770000  0.38920000  1.0
  C  C89  1  0.86930000  0.95930000  0.90580000  1.0
  C  C90  1  0.89430000  0.81170000  0.88990000  1.0
  C  C91  1  0.95090000  0.76740000  0.95880000  1.0
  C  C92  1  0.91570000  0.72070000  0.93750000  1.0
  C  C93  1  0.82120000  0.71200000  0.83270000  1.0
  C  C94  1  0.76820000  0.75520000  0.75760000  1.0
  C  C95  1  0.97210000  0.67260000  0.03090000  1.0
  C  C96  1  0.63230000  0.38770000  0.11080000  1.0
  C  C97  1  0.63070000  0.45930000  0.59420000  1.0
  C  C98  1  0.60570000  0.31170000  0.61010000  1.0
  C  C99  1  0.54910000  0.26740000  0.54120000  1.0
  C  C100  1  0.58430000  0.22070000  0.56250000  1.0
  C  C101  1  0.67880000  0.21200000  0.66730000  1.0
  C  C102  1  0.73180000  0.25520000  0.74240000  1.0
  C  C103  1  0.52790000  0.17260000  0.46910000  1.0
  C  C104  1  0.13230000  0.88770000  0.11080000  1.0
  C  C105  1  0.13070000  0.95930000  0.59420000  1.0
  C  C106  1  0.10570000  0.81170000  0.61010000  1.0
  C  C107  1  0.04910000  0.76740000  0.54120000  1.0
  C  C108  1  0.08430000  0.72070000  0.56250000  1.0
  C  C109  1  0.17880000  0.71200000  0.66730000  1.0
  C  C110  1  0.23180000  0.75520000  0.74240000  1.0
  C  C111  1  0.02790000  0.67260000  0.46910000  1.0
  N  N112  1  0.70550000  0.61660000  0.52640000  1.0
  N  N113  1  0.70310000  0.56620000  0.14940000  1.0
  N  N114  1  0.69960000  0.69475000  0.21120000  1.0
  N  N115  1  0.20550000  0.11660000  0.52640000  1.0
  N  N116  1  0.20310000  0.06620000  0.14940000  1.0
  N  N117  1  0.19960000  0.19475000  0.21120000  1.0
  N  N118  1  0.29450000  0.61660000  0.97360000  1.0
  N  N119  1  0.29690000  0.56620000  0.35060000  1.0
  N  N120  1  0.30040000  0.69475000  0.28880000  1.0
  N  N121  1  0.79450000  0.11660000  0.97360000  1.0
  N  N122  1  0.79690000  0.06620000  0.35060000  1.0
  N  N123  1  0.80040000  0.19475000  0.28880000  1.0
  N  N124  1  0.29450000  0.38340000  0.47360000  1.0
  N  N125  1  0.29690000  0.43380000  0.85060000  1.0
  N  N126  1  0.30040000  0.30525000  0.78880000  1.0
  N  N127  1  0.79450000  0.88340000  0.47360000  1.0
  N  N128  1  0.79690000  0.93380000  0.85060000  1.0
  N  N129  1  0.80040000  0.80525000  0.78880000  1.0
  N  N130  1  0.70550000  0.38340000  0.02640000  1.0
  N  N131  1  0.70310000  0.43380000  0.64940000  1.0
  N  N132  1  0.69960000  0.30525000  0.71120000  1.0
  N  N133  1  0.20550000  0.88340000  0.02640000  1.0
  N  N134  1  0.20310000  0.93380000  0.64940000  1.0
  N  N135  1  0.19960000  0.80525000  0.71120000  1.0
  O  O136  1  0.42610000  0.82293000  0.93100000  1.0
  O  O137  1  0.58740000  0.86691000  0.93310000  1.0
  O  O138  1  0.92610000  0.32293000  0.93100000  1.0
  O  O139  1  0.08740000  0.36691000  0.93310000  1.0
  O  O140  1  0.57390000  0.82293000  0.56900000  1.0
  O  O141  1  0.41260000  0.86691000  0.56690000  1.0
  O  O142  1  0.07390000  0.32293000  0.56900000  1.0
  O  O143  1  0.91260000  0.36691000  0.56690000  1.0
  O  O144  1  0.57390000  0.17707000  0.06900000  1.0
  O  O145  1  0.41260000  0.13309000  0.06690000  1.0
  O  O146  1  0.07390000  0.67707000  0.06900000  1.0
  O  O147  1  0.91260000  0.63309000  0.06690000  1.0
  O  O148  1  0.42610000  0.17707000  0.43100000  1.0
  O  O149  1  0.58740000  0.13309000  0.43310000  1.0
  O  O150  1  0.92610000  0.67707000  0.43100000  1.0
  O  O151  1  0.08740000  0.63309000  0.43310000  1.0
