# generated using pymatgen
data_GdHC5(NO2)2
_symmetry_space_group_name_H-M   'P 1'
_cell_length_a   16.11590000
_cell_length_b   16.44220000
_cell_length_c   16.44220000
_cell_angle_alpha   76.10300000
_cell_angle_beta   60.65420000
_cell_angle_gamma   60.65430000
_symmetry_Int_Tables_number   1
_chemical_formula_structural   GdHC5(NO2)2
_chemical_formula_sum   'Gd16 H16 C80 N32 O64'
_cell_volume   3310.44833855
_cell_formula_units_Z   16
loop_
 _symmetry_equiv_pos_site_id
 _symmetry_equiv_pos_as_xyz
  1  'x, y, z'
loop_
 _atom_site_type_symbol
 _atom_site_label
 _atom_site_symmetry_multiplicity
 _atom_site_fract_x
 _atom_site_fract_y
 _atom_site_fract_z
 _atom_site_occupancy
  Gd  Gd0  1  0.91548000  0.96807000  0.37923000  1.0
  Gd  Gd1  1  0.35039000  0.61337000  0.02367000  1.0
  Gd  Gd2  1  0.76278000  0.53193000  0.12077000  1.0
  Gd  Gd3  1  0.48743000  0.88663000  0.47633000  1.0
  Gd  Gd4  1  0.29471000  0.62077000  0.46807000  1.0
  Gd  Gd5  1  0.37406000  0.97633000  0.11337000  1.0
  Gd  Gd6  1  0.88355000  0.87923000  0.03193000  1.0
  Gd  Gd7  1  0.96376000  0.52367000  0.38663000  1.0
  Gd  Gd8  1  0.08452000  0.03193000  0.62077000  1.0
  Gd  Gd9  1  0.64961000  0.38663000  0.97633000  1.0
  Gd  Gd10  1  0.23722000  0.46807000  0.87923000  1.0
  Gd  Gd11  1  0.51257000  0.11337000  0.52367000  1.0
  Gd  Gd12  1  0.70529000  0.37923000  0.53193000  1.0
  Gd  Gd13  1  0.62594000  0.02367000  0.88663000  1.0
  Gd  Gd14  1  0.11645000  0.12077000  0.96807000  1.0
  Gd  Gd15  1  0.03624000  0.47633000  0.61337000  1.0
  H  H16  1  0.19200000  0.74600000  0.26000000  1.0
  H  H17  1  0.01700000  0.72200000  0.39400000  1.0
  H  H18  1  0.69800000  0.75400000  0.24000000  1.0
  H  H19  1  0.63300000  0.77800000  0.10600000  1.0
  H  H20  1  0.45200000  0.74000000  0.24600000  1.0
  H  H21  1  0.41100000  0.60600000  0.22200000  1.0
  H  H22  1  0.93800000  0.76000000  0.25400000  1.0
  H  H23  1  0.73900000  0.89400000  0.27800000  1.0
  H  H24  1  0.80800000  0.25400000  0.74000000  1.0
  H  H25  1  0.98300000  0.27800000  0.60600000  1.0
  H  H26  1  0.30200000  0.24600000  0.76000000  1.0
  H  H27  1  0.36700000  0.22200000  0.89400000  1.0
  H  H28  1  0.54800000  0.26000000  0.75400000  1.0
  H  H29  1  0.58900000  0.39400000  0.77800000  1.0
  H  H30  1  0.06200000  0.24000000  0.74600000  1.0
  H  H31  1  0.26100000  0.10600000  0.72200000  1.0
  C  C32  1  0.15330000  0.77730000  0.21730000  1.0
  C  C33  1  0.03450000  0.86870000  0.17110000  1.0
  C  C34  1  0.11190000  0.79690000  0.10550000  1.0
  C  C35  1  0.12980000  0.77640000  0.01540000  1.0
  C  C36  1  0.93490000  0.94770000  0.17890000  1.0
  C  C37  1  0.94640000  0.74150000  0.41390000  1.0
  C  C38  1  0.78540000  0.83660000  0.44220000  1.0
  C  C39  1  0.79770000  0.74580000  0.45020000  1.0
  C  C40  1  0.72680000  0.70580000  0.46760000  1.0
  C  C41  1  0.69790000  0.93080000  0.45360000  1.0
  C  C42  1  0.64790000  0.72270000  0.28270000  1.0
  C  C43  1  0.57430000  0.63130000  0.32890000  1.0
  C  C44  1  0.51430000  0.70310000  0.39450000  1.0
  C  C45  1  0.42160000  0.72360000  0.48460000  1.0
  C  C46  1  0.56150000  0.55230000  0.32110000  1.0
  C  C47  1  0.60180000  0.75850000  0.08610000  1.0
  C  C48  1  0.56420000  0.66340000  0.05780000  1.0
  C  C49  1  0.49370000  0.75420000  0.04980000  1.0
  C  C50  1  0.40020000  0.79420000  0.03240000  1.0
  C  C51  1  0.58230000  0.56920000  0.04640000  1.0
  C  C52  1  0.37060000  0.78270000  0.27730000  1.0
  C  C53  1  0.20560000  0.82890000  0.36870000  1.0
  C  C54  1  0.21740000  0.89450000  0.29690000  1.0
  C  C55  1  0.14520000  0.98460000  0.27640000  1.0
  C  C56  1  0.11380000  0.82110000  0.44770000  1.0
  C  C57  1  0.36030000  0.58610000  0.24150000  1.0
  C  C58  1  0.22760000  0.55780000  0.33660000  1.0
  C  C59  1  0.24790000  0.54980000  0.24580000  1.0
  C  C60  1  0.19440000  0.53240000  0.20580000  1.0
  C  C61  1  0.15150000  0.54640000  0.43080000  1.0
  C  C62  1  0.93060000  0.71730000  0.22270000  1.0
  C  C63  1  0.90320000  0.67110000  0.13130000  1.0
  C  C64  1  0.90880000  0.60550000  0.20310000  1.0
  C  C65  1  0.90620000  0.51540000  0.22360000  1.0
  C  C66  1  0.88260000  0.67890000  0.05230000  1.0
  C  C67  1  0.68790000  0.91390000  0.25850000  1.0
  C  C68  1  0.62200000  0.94220000  0.16340000  1.0
  C  C69  1  0.54350000  0.95020000  0.25420000  1.0
  C  C70  1  0.43260000  0.96760000  0.29420000  1.0
  C  C71  1  0.62870000  0.95360000  0.06920000  1.0
  C  C72  1  0.84670000  0.22270000  0.78270000  1.0
  C  C73  1  0.96550000  0.13130000  0.82890000  1.0
  C  C74  1  0.88810000  0.20310000  0.89450000  1.0
  C  C75  1  0.87020000  0.22360000  0.98460000  1.0
  C  C76  1  0.06510000  0.05230000  0.82110000  1.0
  C  C77  1  0.05360000  0.25850000  0.58610000  1.0
  C  C78  1  0.21460000  0.16340000  0.55780000  1.0
  C  C79  1  0.20230000  0.25420000  0.54980000  1.0
  C  C80  1  0.27320000  0.29420000  0.53240000  1.0
  C  C81  1  0.30210000  0.06920000  0.54640000  1.0
  C  C82  1  0.35210000  0.27730000  0.71730000  1.0
  C  C83  1  0.42570000  0.36870000  0.67110000  1.0
  C  C84  1  0.48570000  0.29690000  0.60550000  1.0
  C  C85  1  0.57840000  0.27640000  0.51540000  1.0
  C  C86  1  0.43850000  0.44770000  0.67890000  1.0
  C  C87  1  0.39820000  0.24150000  0.91390000  1.0
  C  C88  1  0.43580000  0.33660000  0.94220000  1.0
  C  C89  1  0.50630000  0.24580000  0.95020000  1.0
  C  C90  1  0.59980000  0.20580000  0.96760000  1.0
  C  C91  1  0.41770000  0.43080000  0.95360000  1.0
  C  C92  1  0.62940000  0.21730000  0.72270000  1.0
  C  C93  1  0.79440000  0.17110000  0.63130000  1.0
  C  C94  1  0.78260000  0.10550000  0.70310000  1.0
  C  C95  1  0.85480000  0.01540000  0.72360000  1.0
  C  C96  1  0.88620000  0.17890000  0.55230000  1.0
  C  C97  1  0.63970000  0.41390000  0.75850000  1.0
  C  C98  1  0.77240000  0.44220000  0.66340000  1.0
  C  C99  1  0.75210000  0.45020000  0.75420000  1.0
  C  C100  1  0.80560000  0.46760000  0.79420000  1.0
  C  C101  1  0.84850000  0.45360000  0.56920000  1.0
  C  C102  1  0.06940000  0.28270000  0.77730000  1.0
  C  C103  1  0.09680000  0.32890000  0.86870000  1.0
  C  C104  1  0.09120000  0.39450000  0.79690000  1.0
  C  C105  1  0.09380000  0.48460000  0.77640000  1.0
  C  C106  1  0.11740000  0.32110000  0.94770000  1.0
  C  C107  1  0.31210000  0.08610000  0.74150000  1.0
  C  C108  1  0.37800000  0.05780000  0.83660000  1.0
  C  C109  1  0.45650000  0.04980000  0.74580000  1.0
  C  C110  1  0.56740000  0.03240000  0.70580000  1.0
  C  C111  1  0.37130000  0.04640000  0.93080000  1.0
  N  N112  1  0.18770000  0.73940000  0.13600000  1.0
  N  N113  1  0.06240000  0.85460000  0.24200000  1.0
  N  N114  1  0.88250000  0.83290000  0.41750000  1.0
  N  N115  1  0.90080000  0.68590000  0.43170000  1.0
  N  N116  1  0.56310000  0.76060000  0.36400000  1.0
  N  N117  1  0.65900000  0.64540000  0.25800000  1.0
  N  N118  1  0.63290000  0.66710000  0.08250000  1.0
  N  N119  1  0.51840000  0.81410000  0.06830000  1.0
  N  N120  1  0.32370000  0.86400000  0.23940000  1.0
  N  N121  1  0.30440000  0.75800000  0.35460000  1.0
  N  N122  1  0.30000000  0.58250000  0.33290000  1.0
  N  N123  1  0.33250000  0.56830000  0.18590000  1.0
  N  N124  1  0.92710000  0.63600000  0.26060000  1.0
  N  N125  1  0.91700000  0.74200000  0.14540000  1.0
  N  N126  1  0.71540000  0.91750000  0.16710000  1.0
  N  N127  1  0.58670000  0.93170000  0.31410000  1.0
  N  N128  1  0.81230000  0.26060000  0.86400000  1.0
  N  N129  1  0.93760000  0.14540000  0.75800000  1.0
  N  N130  1  0.11750000  0.16710000  0.58250000  1.0
  N  N131  1  0.09920000  0.31410000  0.56830000  1.0
  N  N132  1  0.43690000  0.23940000  0.63600000  1.0
  N  N133  1  0.34100000  0.35460000  0.74200000  1.0
  N  N134  1  0.36710000  0.33290000  0.91750000  1.0
  N  N135  1  0.48160000  0.18590000  0.93170000  1.0
  N  N136  1  0.67630000  0.13600000  0.76060000  1.0
  N  N137  1  0.69560000  0.24200000  0.64540000  1.0
  N  N138  1  0.70000000  0.41750000  0.66710000  1.0
  N  N139  1  0.66750000  0.43170000  0.81410000  1.0
  N  N140  1  0.07290000  0.36400000  0.73940000  1.0
  N  N141  1  0.08300000  0.25800000  0.85460000  1.0
  N  N142  1  0.28460000  0.08250000  0.83290000  1.0
  N  N143  1  0.41330000  0.06830000  0.68590000  1.0
  O  O144  1  0.21860000  0.70730000  0.96990000  1.0
  O  O145  1  0.06370000  0.82110000  0.98210000  1.0
  O  O146  1  0.89360000  0.95470000  0.12850000  1.0
  O  O147  1  0.89190000  0.00780000  0.24080000  1.0
  O  O148  1  0.77110000  0.61830000  0.45730000  1.0
  O  O149  1  0.62960000  0.75630000  0.49410000  1.0
  O  O150  1  0.60170000  0.94460000  0.48540000  1.0
  O  O151  1  0.71980000  0.99900000  0.43200000  1.0
  O  O152  1  0.39580000  0.79270000  0.53010000  1.0
  O  O153  1  0.36690000  0.67890000  0.51790000  1.0
  O  O154  1  0.47680000  0.54530000  0.37150000  1.0
  O  O155  1  0.64050000  0.49220000  0.25920000  1.0
  O  O156  1  0.34670000  0.88170000  0.04270000  1.0
  O  O157  1  0.38000000  0.74370000  0.00590000  1.0
  O  O158  1  0.53170000  0.55540000  0.01460000  1.0
  O  O159  1  0.65080000  0.50100000  0.06800000  1.0
  O  O160  1  0.18850000  0.03010000  0.20730000  1.0
  O  O161  1  0.04580000  0.01790000  0.32110000  1.0
  O  O162  1  0.02210000  0.87150000  0.45470000  1.0
  O  O163  1  0.13270000  0.75920000  0.50780000  1.0
  O  O164  1  0.22840000  0.54270000  0.11830000  1.0
  O  O165  1  0.12370000  0.50590000  0.25630000  1.0
  O  O166  1  0.08710000  0.51460000  0.44460000  1.0
  O  O167  1  0.15180000  0.56800000  0.49900000  1.0
  O  O168  1  0.92590000  0.46990000  0.29270000  1.0
  O  O169  1  0.88480000  0.48210000  0.17890000  1.0
  O  O170  1  0.84830000  0.62850000  0.04530000  1.0
  O  O171  1  0.89970000  0.74080000  0.99220000  1.0
  O  O172  1  0.38940000  0.95730000  0.38170000  1.0
  O  O173  1  0.38590000  0.99410000  0.24370000  1.0
  O  O174  1  0.54630000  0.98540000  0.05540000  1.0
  O  O175  1  0.71880000  0.93200000  0.00100000  1.0
  O  O176  1  0.78140000  0.29270000  0.03010000  1.0
  O  O177  1  0.93630000  0.17890000  0.01790000  1.0
  O  O178  1  0.10640000  0.04530000  0.87150000  1.0
  O  O179  1  0.10810000  0.99220000  0.75920000  1.0
  O  O180  1  0.22890000  0.38170000  0.54270000  1.0
  O  O181  1  0.37040000  0.24370000  0.50590000  1.0
  O  O182  1  0.39830000  0.05540000  0.51460000  1.0
  O  O183  1  0.28020000  0.00100000  0.56800000  1.0
  O  O184  1  0.60420000  0.20730000  0.46990000  1.0
  O  O185  1  0.63310000  0.32110000  0.48210000  1.0
  O  O186  1  0.52320000  0.45470000  0.62850000  1.0
  O  O187  1  0.35950000  0.50780000  0.74080000  1.0
  O  O188  1  0.65330000  0.11830000  0.95730000  1.0
  O  O189  1  0.62000000  0.25630000  0.99410000  1.0
  O  O190  1  0.46830000  0.44460000  0.98540000  1.0
  O  O191  1  0.34920000  0.49900000  0.93200000  1.0
  O  O192  1  0.81150000  0.96990000  0.79270000  1.0
  O  O193  1  0.95420000  0.98210000  0.67890000  1.0
  O  O194  1  0.97790000  0.12850000  0.54530000  1.0
  O  O195  1  0.86730000  0.24080000  0.49220000  1.0
  O  O196  1  0.77160000  0.45730000  0.88170000  1.0
  O  O197  1  0.87630000  0.49410000  0.74370000  1.0
  O  O198  1  0.91290000  0.48540000  0.55540000  1.0
  O  O199  1  0.84820000  0.43200000  0.50100000  1.0
  O  O200  1  0.07410000  0.53010000  0.70730000  1.0
  O  O201  1  0.11520000  0.51790000  0.82110000  1.0
  O  O202  1  0.15170000  0.37150000  0.95470000  1.0
  O  O203  1  0.10030000  0.25920000  0.00780000  1.0
  O  O204  1  0.61060000  0.04270000  0.61830000  1.0
  O  O205  1  0.61410000  0.00590000  0.75630000  1.0
  O  O206  1  0.45370000  0.01460000  0.94460000  1.0
  O  O207  1  0.28120000  0.06800000  0.99900000  1.0
