# generated using pymatgen
data_TbHC5(NO2)2
_symmetry_space_group_name_H-M   'P 1'
_cell_length_a   16.02300000
_cell_length_b   16.38330000
_cell_length_c   16.38330000
_cell_angle_alpha   76.16510000
_cell_angle_beta   60.72490000
_cell_angle_gamma   60.72480000
_symmetry_Int_Tables_number   1
_chemical_formula_structural   TbHC5(NO2)2
_chemical_formula_sum   'Tb16 H16 C80 N32 O64'
_cell_volume   3272.35089233
_cell_formula_units_Z   16
loop_
 _symmetry_equiv_pos_site_id
 _symmetry_equiv_pos_as_xyz
  1  'x, y, z'
loop_
 _atom_site_type_symbol
 _atom_site_label
 _atom_site_symmetry_multiplicity
 _atom_site_fract_x
 _atom_site_fract_y
 _atom_site_fract_z
 _atom_site_occupancy
  Tb  Tb0  1  0.23673000  0.87967000  0.46665000  1.0
  Tb  Tb1  1  0.51185000  0.52469000  0.11309000  1.0
  Tb  Tb2  1  0.08305000  0.62033000  0.03335000  1.0
  Tb  Tb3  1  0.64963000  0.97531000  0.38691000  1.0
  Tb  Tb4  1  0.70338000  0.53335000  0.37967000  1.0
  Tb  Tb5  1  0.62494000  0.88691000  0.02469000  1.0
  Tb  Tb6  1  0.11640000  0.96665000  0.12033000  1.0
  Tb  Tb7  1  0.03654000  0.61309000  0.47531000  1.0
  Tb  Tb8  1  0.76327000  0.12033000  0.53335000  1.0
  Tb  Tb9  1  0.48815000  0.47531000  0.88691000  1.0
  Tb  Tb10  1  0.91695000  0.37967000  0.96665000  1.0
  Tb  Tb11  1  0.35037000  0.02469000  0.61309000  1.0
  Tb  Tb12  1  0.29662000  0.46665000  0.62033000  1.0
  Tb  Tb13  1  0.37506000  0.11309000  0.97531000  1.0
  Tb  Tb14  1  0.88360000  0.03335000  0.87967000  1.0
  Tb  Tb15  1  0.96346000  0.38691000  0.52469000  1.0
  H  H16  1  0.30820000  0.75280000  0.24600000  1.0
  H  H17  1  0.36180000  0.90060000  0.21900000  1.0
  H  H18  1  0.80700000  0.74720000  0.25400000  1.0
  H  H19  1  0.98140000  0.59940000  0.28100000  1.0
  H  H20  1  0.55420000  0.75400000  0.25280000  1.0
  H  H21  1  0.58080000  0.78100000  0.40060000  1.0
  H  H22  1  0.06100000  0.74600000  0.24720000  1.0
  H  H23  1  0.26240000  0.71900000  0.09940000  1.0
  H  H24  1  0.69180000  0.24720000  0.75400000  1.0
  H  H25  1  0.63820000  0.09940000  0.78100000  1.0
  H  H26  1  0.19300000  0.25280000  0.74600000  1.0
  H  H27  1  0.01860000  0.40060000  0.71900000  1.0
  H  H28  1  0.44580000  0.24600000  0.74720000  1.0
  H  H29  1  0.41920000  0.21900000  0.59940000  1.0
  H  H30  1  0.93900000  0.25400000  0.75280000  1.0
  H  H31  1  0.73760000  0.28100000  0.90060000  1.0
  C  C32  1  0.35400000  0.71650000  0.27370000  1.0
  C  C33  1  0.42560000  0.67170000  0.36750000  1.0
  C  C34  1  0.48530000  0.60640000  0.29620000  1.0
  C  C35  1  0.57950000  0.51630000  0.27450000  1.0
  C  C36  1  0.43720000  0.67860000  0.44760000  1.0
  C  C37  1  0.39570000  0.91540000  0.24180000  1.0
  C  C38  1  0.43690000  0.94300000  0.33580000  1.0
  C  C39  1  0.50490000  0.95110000  0.24670000  1.0
  C  C40  1  0.60080000  0.96740000  0.20380000  1.0
  C  C41  1  0.41570000  0.95330000  0.43030000  1.0
  C  C42  1  0.84420000  0.78350000  0.22630000  1.0
  C  C43  1  0.96480000  0.82830000  0.13250000  1.0
  C  C44  1  0.88790000  0.89360000  0.20380000  1.0
  C  C45  1  0.87030000  0.98370000  0.22550000  1.0
  C  C46  1  0.06340000  0.82140000  0.05240000  1.0
  C  C47  1  0.05290000  0.58460000  0.25820000  1.0
  C  C48  1  0.21570000  0.55700000  0.16420000  1.0
  C  C49  1  0.20270000  0.54890000  0.25330000  1.0
  C  C50  1  0.27200000  0.53260000  0.29620000  1.0
  C  C51  1  0.29930000  0.54670000  0.06970000  1.0
  C  C52  1  0.62770000  0.72630000  0.21650000  1.0
  C  C53  1  0.79310000  0.63250000  0.17170000  1.0
  C  C54  1  0.78150000  0.70380000  0.10640000  1.0
  C  C55  1  0.85400000  0.72550000  0.01630000  1.0
  C  C56  1  0.88480000  0.55240000  0.17860000  1.0
  C  C57  1  0.63750000  0.75820000  0.41540000  1.0
  C  C58  1  0.77270000  0.66420000  0.44300000  1.0
  C  C59  1  0.75160000  0.75330000  0.45110000  1.0
  C  C60  1  0.80460000  0.79620000  0.46740000  1.0
  C  C61  1  0.84600000  0.56970000  0.45330000  1.0
  C  C62  1  0.07050000  0.77370000  0.28350000  1.0
  C  C63  1  0.09730000  0.86750000  0.32830000  1.0
  C  C64  1  0.09170000  0.79620000  0.39360000  1.0
  C  C65  1  0.09580000  0.77450000  0.48370000  1.0
  C  C66  1  0.11580000  0.94760000  0.32140000  1.0
  C  C67  1  0.31110000  0.74180000  0.08460000  1.0
  C  C68  1  0.37990000  0.83580000  0.05700000  1.0
  C  C69  1  0.45600000  0.74670000  0.04890000  1.0
  C  C70  1  0.56820000  0.70380000  0.03260000  1.0
  C  C71  1  0.36900000  0.93030000  0.04670000  1.0
  C  C72  1  0.64600000  0.28350000  0.72630000  1.0
  C  C73  1  0.57440000  0.32830000  0.63250000  1.0
  C  C74  1  0.51470000  0.39360000  0.70380000  1.0
  C  C75  1  0.42050000  0.48370000  0.72550000  1.0
  C  C76  1  0.56280000  0.32140000  0.55240000  1.0
  C  C77  1  0.60430000  0.08460000  0.75820000  1.0
  C  C78  1  0.56310000  0.05700000  0.66420000  1.0
  C  C79  1  0.49510000  0.04890000  0.75330000  1.0
  C  C80  1  0.39920000  0.03260000  0.79620000  1.0
  C  C81  1  0.58430000  0.04670000  0.56970000  1.0
  C  C82  1  0.15580000  0.21650000  0.77370000  1.0
  C  C83  1  0.03520000  0.17170000  0.86750000  1.0
  C  C84  1  0.11210000  0.10640000  0.79620000  1.0
  C  C85  1  0.12970000  0.01630000  0.77450000  1.0
  C  C86  1  0.93660000  0.17860000  0.94760000  1.0
  C  C87  1  0.94710000  0.41540000  0.74180000  1.0
  C  C88  1  0.78430000  0.44300000  0.83580000  1.0
  C  C89  1  0.79730000  0.45110000  0.74670000  1.0
  C  C90  1  0.72800000  0.46740000  0.70380000  1.0
  C  C91  1  0.70070000  0.45330000  0.93030000  1.0
  C  C92  1  0.37230000  0.27370000  0.78350000  1.0
  C  C93  1  0.20690000  0.36750000  0.82830000  1.0
  C  C94  1  0.21850000  0.29620000  0.89360000  1.0
  C  C95  1  0.14600000  0.27450000  0.98370000  1.0
  C  C96  1  0.11520000  0.44760000  0.82140000  1.0
  C  C97  1  0.36250000  0.24180000  0.58460000  1.0
  C  C98  1  0.22730000  0.33580000  0.55700000  1.0
  C  C99  1  0.24840000  0.24670000  0.54890000  1.0
  C  C100  1  0.19540000  0.20380000  0.53260000  1.0
  C  C101  1  0.15400000  0.43030000  0.54670000  1.0
  C  C102  1  0.92950000  0.22630000  0.71650000  1.0
  C  C103  1  0.90270000  0.13250000  0.67170000  1.0
  C  C104  1  0.90830000  0.20380000  0.60640000  1.0
  C  C105  1  0.90420000  0.22550000  0.51630000  1.0
  C  C106  1  0.88420000  0.05240000  0.67860000  1.0
  C  C107  1  0.68890000  0.25820000  0.91540000  1.0
  C  C108  1  0.62010000  0.16420000  0.94300000  1.0
  C  C109  1  0.54400000  0.25330000  0.95110000  1.0
  C  C110  1  0.43180000  0.29620000  0.96740000  1.0
  C  C111  1  0.63100000  0.06970000  0.95330000  1.0
  N  N112  1  0.43790000  0.63400000  0.23720000  1.0
  N  N113  1  0.33990000  0.74370000  0.35270000  1.0
  N  N114  1  0.36480000  0.92050000  0.33150000  1.0
  N  N115  1  0.47970000  0.93280000  0.18540000  1.0
  N  N116  1  0.80910000  0.86600000  0.26280000  1.0
  N  N117  1  0.93630000  0.75630000  0.14730000  1.0
  N  N118  1  0.11680000  0.57950000  0.16850000  1.0
  N  N119  1  0.09790000  0.56720000  0.31460000  1.0
  N  N120  1  0.67510000  0.76280000  0.13400000  1.0
  N  N121  1  0.69260000  0.64730000  0.24370000  1.0
  N  N122  1  0.69630000  0.66850000  0.42050000  1.0
  N  N123  1  0.66510000  0.81460000  0.43280000  1.0
  N  N124  1  0.07190000  0.73720000  0.36600000  1.0
  N  N125  1  0.08360000  0.85270000  0.25630000  1.0
  N  N126  1  0.28530000  0.83150000  0.07950000  1.0
  N  N127  1  0.41250000  0.68540000  0.06720000  1.0
  N  N128  1  0.56210000  0.36600000  0.76280000  1.0
  N  N129  1  0.66010000  0.25630000  0.64730000  1.0
  N  N130  1  0.63520000  0.07950000  0.66850000  1.0
  N  N131  1  0.52030000  0.06720000  0.81460000  1.0
  N  N132  1  0.19090000  0.13400000  0.73720000  1.0
  N  N133  1  0.06370000  0.24370000  0.85270000  1.0
  N  N134  1  0.88320000  0.42050000  0.83150000  1.0
  N  N135  1  0.90210000  0.43280000  0.68540000  1.0
  N  N136  1  0.32490000  0.23720000  0.86600000  1.0
  N  N137  1  0.30740000  0.35270000  0.75630000  1.0
  N  N138  1  0.30370000  0.33150000  0.57950000  1.0
  N  N139  1  0.33490000  0.18540000  0.56720000  1.0
  N  N140  1  0.92810000  0.26280000  0.63400000  1.0
  N  N141  1  0.91640000  0.14730000  0.74370000  1.0
  N  N142  1  0.71470000  0.16850000  0.92050000  1.0
  N  N143  1  0.58750000  0.31460000  0.93280000  1.0
  O  O144  1  0.60430000  0.47020000  0.20720000  1.0
  O  O145  1  0.63310000  0.48220000  0.31960000  1.0
  O  O146  1  0.52050000  0.62830000  0.45510000  1.0
  O  O147  1  0.35700000  0.74270000  0.50810000  1.0
  O  O148  1  0.65520000  0.95700000  0.11760000  1.0
  O  O149  1  0.62020000  0.99350000  0.25610000  1.0
  O  O150  1  0.46730000  0.98680000  0.44520000  1.0
  O  O151  1  0.34900000  0.93260000  0.49800000  1.0
  O  O152  1  0.78170000  0.02980000  0.29280000  1.0
  O  O153  1  0.93490000  0.01780000  0.18040000  1.0
  O  O154  1  0.10390000  0.87170000  0.04490000  1.0
  O  O155  1  0.10780000  0.75730000  0.99190000  1.0
  O  O156  1  0.22980000  0.54300000  0.38240000  1.0
  O  O157  1  0.36980000  0.50650000  0.24390000  1.0
  O  O158  1  0.39930000  0.51320000  0.05480000  1.0
  O  O159  1  0.27960000  0.56740000  0.00200000  1.0
  O  O160  1  0.81150000  0.79280000  0.97020000  1.0
  O  O161  1  0.95270000  0.68040000  0.98220000  1.0
  O  O162  1  0.97560000  0.54490000  0.12830000  1.0
  O  O163  1  0.86510000  0.49190000  0.24270000  1.0
  O  O164  1  0.77280000  0.88240000  0.45700000  1.0
  O  O165  1  0.87630000  0.74390000  0.49350000  1.0
  O  O166  1  0.91250000  0.55480000  0.48680000  1.0
  O  O167  1  0.84700000  0.50200000  0.43260000  1.0
  O  O168  1  0.07450000  0.70720000  0.52980000  1.0
  O  O169  1  0.11530000  0.81960000  0.51780000  1.0
  O  O170  1  0.14880000  0.95510000  0.37170000  1.0
  O  O171  1  0.09970000  0.00810000  0.25730000  1.0
  O  O172  1  0.61220000  0.61760000  0.04300000  1.0
  O  O173  1  0.61370000  0.75610000  0.00650000  1.0
  O  O174  1  0.45410000  0.94520000  0.01320000  1.0
  O  O175  1  0.28160000  0.99800000  0.06740000  1.0
  O  O176  1  0.39570000  0.52980000  0.79280000  1.0
  O  O177  1  0.36690000  0.51780000  0.68040000  1.0
  O  O178  1  0.47950000  0.37170000  0.54490000  1.0
  O  O179  1  0.64300000  0.25730000  0.49190000  1.0
  O  O180  1  0.34480000  0.04300000  0.88240000  1.0
  O  O181  1  0.37980000  0.00650000  0.74390000  1.0
  O  O182  1  0.53270000  0.01320000  0.55480000  1.0
  O  O183  1  0.65100000  0.06740000  0.50200000  1.0
  O  O184  1  0.21830000  0.97020000  0.70720000  1.0
  O  O185  1  0.06510000  0.98220000  0.81960000  1.0
  O  O186  1  0.89610000  0.12830000  0.95510000  1.0
  O  O187  1  0.89220000  0.24270000  0.00810000  1.0
  O  O188  1  0.77020000  0.45700000  0.61760000  1.0
  O  O189  1  0.63020000  0.49350000  0.75610000  1.0
  O  O190  1  0.60070000  0.48680000  0.94520000  1.0
  O  O191  1  0.72040000  0.43260000  0.99800000  1.0
  O  O192  1  0.18850000  0.20720000  0.02980000  1.0
  O  O193  1  0.04730000  0.31960000  0.01780000  1.0
  O  O194  1  0.02440000  0.45510000  0.87170000  1.0
  O  O195  1  0.13490000  0.50810000  0.75730000  1.0
  O  O196  1  0.22720000  0.11760000  0.54300000  1.0
  O  O197  1  0.12370000  0.25610000  0.50650000  1.0
  O  O198  1  0.08750000  0.44520000  0.51320000  1.0
  O  O199  1  0.15300000  0.49800000  0.56740000  1.0
  O  O200  1  0.92550000  0.29280000  0.47020000  1.0
  O  O201  1  0.88470000  0.18040000  0.48220000  1.0
  O  O202  1  0.85120000  0.04490000  0.62830000  1.0
  O  O203  1  0.90030000  0.99190000  0.74270000  1.0
  O  O204  1  0.38780000  0.38240000  0.95700000  1.0
  O  O205  1  0.38630000  0.24390000  0.99350000  1.0
  O  O206  1  0.54590000  0.05480000  0.98680000  1.0
  O  O207  1  0.71840000  0.00200000  0.93260000  1.0
