# generated using pymatgen
data_Eu2Cu5Si2H36W22C44(N10O33)2
_symmetry_space_group_name_H-M   'P 1'
_cell_length_a   11.37800000
_cell_length_b   12.18400000
_cell_length_c   23.32800000
_cell_angle_alpha   83.71500000
_cell_angle_beta   81.99000000
_cell_angle_gamma   70.71400000
_symmetry_Int_Tables_number   1
_chemical_formula_structural   Eu2Cu5Si2H36W22C44(N10O33)2
_chemical_formula_sum   'Eu2 Cu5 Si2 H36 W22 C44 N20 O66'
_cell_volume   3015.71286397
_cell_formula_units_Z   1
loop_
 _symmetry_equiv_pos_site_id
 _symmetry_equiv_pos_as_xyz
  1  'x, y, z'
loop_
 _atom_site_type_symbol
 _atom_site_label
 _atom_site_symmetry_multiplicity
 _atom_site_fract_x
 _atom_site_fract_y
 _atom_site_fract_z
 _atom_site_occupancy
  Eu  Eu0  1  0.26236000  0.73370000  0.25992000  1.0
  Eu  Eu1  1  0.73764000  0.26630000  0.74008000  1.0
  Cu  Cu2  1  0.89154000  0.75676000  0.74514000  1.0
  Cu  Cu3  1  0.30816000  0.86919000  0.02764000  1.0
  Cu  Cu4  1  0.10846000  0.24324000  0.25486000  1.0
  Cu  Cu5  1  0.69184000  0.13081000  0.97236000  1.0
  Cu  Cu6  1  0.50000000  0.50000000  0.50000000  1.0
  Si  Si7  1  0.12780000  0.21330000  0.76220000  1.0
  Si  Si8  1  0.87220000  0.78670000  0.23780000  1.0
  H  H9  1  0.25290000  0.46660000  0.46340000  1.0
  H  H10  1  0.24880000  0.56300000  0.58380000  1.0
  H  H11  1  0.53390000  0.88100000  0.93340000  1.0
  H  H12  1  0.89150000  0.74810000  0.98960000  1.0
  H  H13  1  0.71520000  0.76790000  0.85050000  1.0
  H  H14  1  0.39360000  0.64760000  0.94480000  1.0
  H  H15  1  0.92850000  0.25060000  0.17370000  1.0
  H  H16  1  0.08700000  0.31940000  0.49320000  1.0
  H  H17  1  0.31950000  0.72170000  0.43390000  1.0
  H  H18  1  0.91000000  0.20820000  0.53960000  1.0
  H  H19  1  0.68050000  0.27830000  0.56610000  1.0
  H  H20  1  0.74600000  0.38710000  0.11290000  1.0
  H  H21  1  0.93790000  0.13670000  0.01250000  1.0
  H  H22  1  0.07300000  0.73870000  0.63850000  1.0
  H  H23  1  0.46610000  0.11900000  0.06660000  1.0
  H  H24  1  0.27790000  0.26210000  0.33630000  1.0
  H  H25  1  0.92700000  0.26130000  0.36150000  1.0
  H  H26  1  0.75120000  0.43700000  0.41620000  1.0
  H  H27  1  0.24630000  0.38390000  0.97810000  1.0
  H  H28  1  0.09000000  0.79180000  0.46040000  1.0
  H  H29  1  0.45040000  0.14490000  0.41760000  1.0
  H  H30  1  0.41520000  0.76070000  0.54580000  1.0
  H  H31  1  0.47140000  0.35560000  0.93620000  1.0
  H  H32  1  0.28480000  0.23210000  0.14950000  1.0
  H  H33  1  0.25400000  0.61290000  0.88710000  1.0
  H  H34  1  0.91300000  0.68060000  0.50680000  1.0
  H  H35  1  0.74710000  0.53340000  0.53660000  1.0
  H  H36  1  0.60640000  0.35240000  0.05520000  1.0
  H  H37  1  0.72210000  0.73790000  0.66370000  1.0
  H  H38  1  0.06210000  0.86330000  0.98750000  1.0
  H  H39  1  0.10850000  0.25190000  0.01040000  1.0
  H  H40  1  0.07150000  0.74940000  0.82630000  1.0
  H  H41  1  0.75370000  0.61610000  0.02190000  1.0
  H  H42  1  0.52860000  0.64440000  0.06380000  1.0
  H  H43  1  0.54960000  0.85510000  0.58240000  1.0
  H  H44  1  0.58480000  0.23930000  0.45420000  1.0
  W  W45  1  0.43794000  0.16621000  0.78313000  1.0
  W  W46  1  0.91159000  0.49050000  0.76447000  1.0
  W  W47  1  0.78866000  0.53435000  0.21813000  1.0
  W  W48  1  0.25790000  0.07524000  0.89223000  1.0
  W  W49  1  0.92837000  0.11757000  0.86702000  1.0
  W  W50  1  0.23462000  0.07867000  0.63081000  1.0
  W  W51  1  0.35086000  0.93184000  0.76909000  1.0
  W  W52  1  0.98256000  0.01434000  0.25484000  1.0
  W  W53  1  0.01103000  0.34321000  0.63086000  1.0
  W  W54  1  0.97035000  0.62909000  0.11102000  1.0
  W  W55  1  0.01744000  0.98566000  0.74516000  1.0
  W  W56  1  0.21134000  0.46565000  0.78187000  1.0
  W  W57  1  0.74210000  0.92476000  0.10777000  1.0
  W  W58  1  0.98897000  0.65679000  0.36914000  1.0
  W  W59  1  0.31633000  0.31380000  0.64534000  1.0
  W  W60  1  0.56206000  0.83379000  0.21687000  1.0
  W  W61  1  0.02965000  0.37091000  0.88898000  1.0
  W  W62  1  0.08841000  0.50950000  0.23553000  1.0
  W  W63  1  0.07163000  0.88243000  0.13298000  1.0
  W  W64  1  0.68367000  0.68620000  0.35466000  1.0
  W  W65  1  0.76538000  0.92133000  0.36919000  1.0
  W  W66  1  0.64914000  0.06816000  0.23091000  1.0
  C  C67  1  0.30900000  0.69000000  0.94480000  1.0
  C  C68  1  0.49980000  0.27470000  0.45100000  1.0
  C  C69  1  0.57200000  0.78000000  0.56950000  1.0
  C  C70  1  0.55860000  0.68900000  0.03430000  1.0
  C  C71  1  0.99550000  0.27220000  0.37480000  1.0
  C  C72  1  0.78880000  0.76050000  0.92500000  1.0
  C  C73  1  0.20130000  0.29240000  0.41740000  1.0
  C  C74  1  0.00060000  0.74930000  0.85150000  1.0
  C  C75  1  0.68260000  0.67190000  0.00920000  1.0
  C  C76  1  0.99940000  0.25070000  0.14850000  1.0
  C  C77  1  0.23300000  0.66800000  0.91480000  1.0
  C  C78  1  0.00150000  0.74560000  0.91020000  1.0
  C  C79  1  0.78880000  0.76130000  0.86560000  1.0
  C  C80  1  0.72400000  0.30380000  0.53350000  1.0
  C  C81  1  0.31740000  0.32810000  0.99080000  1.0
  C  C82  1  0.85080000  0.26210000  0.51820000  1.0
  C  C83  1  0.20430000  0.27030000  0.36100000  1.0
  C  C84  1  0.67960000  0.60050000  0.54390000  1.0
  C  C85  1  0.76700000  0.33200000  0.08520000  1.0
  C  C86  1  0.87100000  0.19280000  0.03110000  1.0
  C  C87  1  0.55960000  0.82100000  0.96180000  1.0
  C  C88  1  0.99850000  0.25440000  0.08980000  1.0
  C  C89  1  0.76180000  0.39100000  0.45090000  1.0
  C  C90  1  0.69100000  0.31000000  0.05520000  1.0
  C  C91  1  0.90860000  0.69330000  0.54570000  1.0
  C  C92  1  0.12900000  0.80720000  0.96890000  1.0
  C  C93  1  0.01010000  0.69860000  0.56910000  1.0
  C  C94  1  0.10850000  0.24900000  0.05040000  1.0
  C  C95  1  0.79570000  0.72970000  0.63900000  1.0
  C  C96  1  0.21120000  0.23950000  0.07500000  1.0
  C  C97  1  0.44140000  0.31100000  0.96570000  1.0
  C  C98  1  0.44040000  0.17900000  0.03820000  1.0
  C  C99  1  0.21120000  0.23870000  0.13440000  1.0
  C  C100  1  0.79870000  0.70760000  0.58260000  1.0
  C  C101  1  0.14920000  0.73790000  0.48180000  1.0
  C  C102  1  0.09140000  0.30670000  0.45430000  1.0
  C  C103  1  0.32040000  0.39950000  0.45610000  1.0
  C  C104  1  0.98990000  0.30140000  0.43090000  1.0
  C  C105  1  0.50020000  0.72530000  0.54900000  1.0
  C  C106  1  0.23820000  0.60900000  0.54910000  1.0
  C  C107  1  0.27600000  0.69620000  0.46650000  1.0
  C  C108  1  0.42800000  0.22000000  0.43050000  1.0
  C  C109  1  0.00450000  0.72780000  0.62520000  1.0
  C  C110  1  0.89150000  0.75100000  0.94960000  1.0
  N  N111  1  0.87210000  0.31550000  0.46560000  1.0
  N  N112  1  0.56450000  0.61350000  0.53370000  1.0
  N  N113  1  0.48870000  0.79560000  0.00250000  1.0
  N  N114  1  0.43550000  0.38650000  0.46630000  1.0
  N  N115  1  0.89550000  0.74020000  0.66030000  1.0
  N  N116  1  0.10890000  0.24700000  0.16940000  1.0
  N  N117  1  0.75370000  0.21320000  0.02260000  1.0
  N  N118  1  0.12790000  0.68450000  0.53440000  1.0
  N  N119  1  0.68910000  0.69410000  0.56580000  1.0
  N  N120  1  0.10450000  0.25980000  0.33970000  1.0
  N  N121  1  0.31940000  0.25050000  0.03620000  1.0
  N  N122  1  0.32810000  0.61000000  0.50750000  1.0
  N  N123  1  0.68060000  0.74950000  0.96380000  1.0
  N  N124  1  0.88380000  0.25940000  0.06840000  1.0
  N  N125  1  0.31090000  0.30590000  0.43420000  1.0
  N  N126  1  0.67190000  0.39000000  0.49250000  1.0
  N  N127  1  0.24630000  0.78680000  0.97740000  1.0
  N  N128  1  0.51130000  0.20440000  0.99750000  1.0
  N  N129  1  0.11620000  0.74060000  0.93160000  1.0
  N  N130  1  0.89110000  0.75300000  0.83060000  1.0
  O  O131  1  0.96930000  0.97850000  0.82830000  1.0
  O  O132  1  0.08340000  0.34340000  0.78790000  1.0
  O  O133  1  0.09180000  0.51000000  0.15170000  1.0
  O  O134  1  0.33390000  0.99880000  0.68970000  1.0
  O  O135  1  0.01200000  0.84720000  0.73170000  1.0
  O  O136  1  0.17090000  0.23480000  0.90320000  1.0
  O  O137  1  0.66020000  0.67910000  0.19870000  1.0
  O  O138  1  0.65820000  0.06410000  0.14750000  1.0
  O  O139  1  0.13640000  0.93100000  0.06600000  1.0
  O  O140  1  0.33980000  0.32090000  0.80130000  1.0
  O  O141  1  0.89230000  0.94670000  0.11090000  1.0
  O  O142  1  0.58610000  0.79000000  0.29490000  1.0
  O  O143  1  0.97870000  0.45900000  0.68720000  1.0
  O  O144  1  0.82910000  0.76520000  0.09680000  1.0
  O  O145  1  0.19510000  0.92600000  0.77010000  1.0
  O  O146  1  0.81620000  0.40360000  0.76870000  1.0
  O  O147  1  0.17590000  0.38210000  0.61030000  1.0
  O  O148  1  0.14510000  0.45290000  0.86190000  1.0
  O  O149  1  0.84000000  0.77330000  0.30690000  1.0
  O  O150  1  0.34540000  0.17140000  0.60950000  1.0
  O  O151  1  0.82410000  0.61790000  0.38970000  1.0
  O  O152  1  0.10370000  0.02820000  0.67540000  1.0
  O  O153  1  0.90820000  0.49000000  0.84830000  1.0
  O  O154  1  0.10290000  0.71280000  0.33230000  1.0
  O  O155  1  0.19490000  0.36850000  0.24380000  1.0
  O  O156  1  0.41010000  0.83060000  0.21840000  1.0
  O  O157  1  0.10700000  0.20170000  0.59390000  1.0
  O  O158  1  0.13550000  0.93070000  0.26930000  1.0
  O  O159  1  0.80490000  0.07400000  0.22990000  1.0
  O  O160  1  0.98800000  0.15280000  0.26830000  1.0
  O  O161  1  0.02090000  0.14830000  0.77830000  1.0
  O  O162  1  0.66610000  0.00120000  0.31030000  1.0
  O  O163  1  0.51980000  0.99520000  0.23370000  1.0
  O  O164  1  0.86360000  0.06900000  0.93400000  1.0
  O  O165  1  0.03070000  0.02150000  0.17170000  1.0
  O  O166  1  0.58990000  0.16940000  0.78160000  1.0
  O  O167  1  0.97910000  0.85170000  0.22170000  1.0
  O  O168  1  0.48020000  0.00480000  0.76630000  1.0
  O  O169  1  0.70740000  0.97880000  0.03870000  1.0
  O  O170  1  0.74090000  0.57680000  0.29530000  1.0
  O  O171  1  0.29260000  0.02120000  0.96130000  1.0
  O  O172  1  0.89300000  0.79830000  0.40610000  1.0
  O  O173  1  0.34180000  0.93590000  0.85250000  1.0
  O  O174  1  0.18380000  0.59640000  0.23130000  1.0
  O  O175  1  0.78900000  0.18790000  0.83460000  1.0
  O  O176  1  0.85490000  0.54710000  0.13810000  1.0
  O  O177  1  0.16000000  0.22670000  0.69310000  1.0
  O  O178  1  0.89630000  0.97180000  0.32460000  1.0
  O  O179  1  0.80510000  0.63150000  0.75620000  1.0
  O  O180  1  0.91660000  0.65660000  0.21210000  1.0
  O  O181  1  0.86450000  0.06930000  0.73070000  1.0
  O  O182  1  0.41390000  0.21000000  0.70510000  1.0
  O  O183  1  0.94240000  0.43820000  0.23720000  1.0
  O  O184  1  0.21100000  0.81210000  0.16540000  1.0
  O  O185  1  0.89710000  0.28720000  0.66770000  1.0
  O  O186  1  0.02130000  0.54100000  0.31280000  1.0
  O  O187  1  0.25910000  0.42320000  0.70470000  1.0
  O  O188  1  0.94340000  0.26170000  0.88530000  1.0
  O  O189  1  0.05660000  0.73830000  0.11470000  1.0
  O  O190  1  0.59030000  0.88190000  0.13620000  1.0
  O  O191  1  0.74690000  0.86870000  0.20830000  1.0
  O  O192  1  0.10770000  0.05330000  0.88910000  1.0
  O  O193  1  0.25310000  0.13130000  0.79170000  1.0
  O  O194  1  0.05760000  0.56180000  0.76280000  1.0
  O  O195  1  0.65460000  0.82860000  0.39050000  1.0
  O  O196  1  0.40970000  0.11810000  0.86380000  1.0
