# generated using pymatgen
data_Na6Cu3H8W12C4(NO22)2
_symmetry_space_group_name_H-M   'P 1'
_cell_length_a   12.39200000
_cell_length_b   12.70300000
_cell_length_c   12.99100000
_cell_angle_alpha   63.63000000
_cell_angle_beta   88.80000000
_cell_angle_gamma   66.27000000
_symmetry_Int_Tables_number   1
_chemical_formula_structural   Na6Cu3H8W12C4(NO22)2
_chemical_formula_sum   'Na6 Cu3 H8 W12 C4 N2 O44'
_cell_volume   1645.94922480
_cell_formula_units_Z   1
loop_
 _symmetry_equiv_pos_site_id
 _symmetry_equiv_pos_as_xyz
  1  'x, y, z'
loop_
 _atom_site_type_symbol
 _atom_site_label
 _atom_site_symmetry_multiplicity
 _atom_site_fract_x
 _atom_site_fract_y
 _atom_site_fract_z
 _atom_site_occupancy
  Na  Na0  1  0.00620000  0.63650000  0.24300000  1.0
  Na  Na1  1  0.92510000  0.42610000  0.19160000  1.0
  Na  Na2  1  0.73140000  0.93740000  0.10680000  1.0
  Na  Na3  1  0.99380000  0.36350000  0.75700000  1.0
  Na  Na4  1  0.07490000  0.57390000  0.80840000  1.0
  Na  Na5  1  0.26860000  0.06260000  0.89320000  1.0
  Cu  Cu6  1  0.72530000  0.91690000  0.50660000  1.0
  Cu  Cu7  1  0.27470000  0.08310000  0.49340000  1.0
  Cu  Cu8  1  0.50000000  0.50000000  0.00000000  1.0
  H  H9  1  0.70720000  0.89800000  0.76640000  1.0
  H  H10  1  0.64600000  0.80440000  0.79160000  1.0
  H  H11  1  0.56220000  0.90400000  0.61050000  1.0
  H  H12  1  0.57960000  0.01340000  0.60460000  1.0
  H  H13  1  0.29280000  0.10200000  0.23360000  1.0
  H  H14  1  0.35400000  0.19560000  0.20840000  1.0
  H  H15  1  0.43780000  0.09600000  0.38950000  1.0
  H  H16  1  0.42040000  0.98660000  0.39540000  1.0
  W  W17  1  0.59872000  0.25288000  0.31225000  1.0
  W  W18  1  0.78135000  0.17064000  0.54528000  1.0
  W  W19  1  0.34516000  0.51215000  0.22911000  1.0
  W  W20  1  0.37546000  0.79103000  0.22143000  1.0
  W  W21  1  0.43848000  0.28895000  0.54727000  1.0
  W  W22  1  0.63436000  0.51936000  0.32505000  1.0
  W  W23  1  0.40128000  0.74712000  0.68775000  1.0
  W  W24  1  0.21865000  0.82936000  0.45472000  1.0
  W  W25  1  0.65484000  0.48785000  0.77089000  1.0
  W  W26  1  0.62454000  0.20897000  0.77857000  1.0
  W  W27  1  0.56152000  0.71105000  0.45273000  1.0
  W  W28  1  0.36564000  0.48064000  0.67495000  1.0
  C  C29  1  0.69090000  0.84500000  0.73930000  1.0
  C  C30  1  0.81080000  0.73800000  0.74220000  1.0
  C  C31  1  0.30910000  0.15500000  0.26070000  1.0
  C  C32  1  0.18920000  0.26200000  0.25780000  1.0
  N  N33  1  0.61780000  0.93000000  0.61850000  1.0
  N  N34  1  0.38220000  0.07000000  0.38150000  1.0
  O  O35  1  0.98500000  0.45140000  0.36070000  1.0
  O  O36  1  0.89000000  0.66150000  0.07390000  1.0
  O  O37  1  0.36340000  0.43760000  0.40950000  1.0
  O  O38  1  0.62390000  0.08650000  0.37150000  1.0
  O  O39  1  0.58420000  0.22680000  0.49850000  1.0
  O  O40  1  0.74340000  0.17360000  0.68510000  1.0
  O  O41  1  0.81920000  0.74990000  0.28800000  1.0
  O  O42  1  0.31490000  0.67150000  0.22160000  1.0
  O  O43  1  0.37690000  0.54810000  0.08820000  1.0
  O  O44  1  0.19980000  0.53160000  0.21240000  1.0
  O  O45  1  0.51610000  0.69050000  0.18410000  1.0
  O  O46  1  0.75050000  0.22220000  0.38010000  1.0
  O  O47  1  0.42800000  0.32360000  0.28410000  1.0
  O  O48  1  0.69840000  0.38190000  0.47080000  1.0
  O  O49  1  0.53830000  0.44960000  0.28530000  1.0
  O  O50  1  0.83120000  0.75480000  0.64100000  1.0
  O  O51  1  0.47680000  0.61720000  0.39530000  1.0
  O  O52  1  0.74500000  0.49120000  0.24680000  1.0
  O  O53  1  0.30110000  0.93020000  0.08520000  1.0
  O  O54  1  0.46060000  0.84690000  0.28730000  1.0
  O  O55  1  0.33280000  0.36560000  0.63310000  1.0
  O  O56  1  0.87740000  0.65880000  0.83610000  1.0
  O  O57  1  0.01500000  0.54860000  0.63930000  1.0
  O  O58  1  0.11000000  0.33850000  0.92610000  1.0
  O  O59  1  0.63660000  0.56240000  0.59050000  1.0
  O  O60  1  0.37610000  0.91350000  0.62850000  1.0
  O  O61  1  0.41580000  0.77320000  0.50150000  1.0
  O  O62  1  0.25660000  0.82640000  0.31490000  1.0
  O  O63  1  0.18080000  0.25010000  0.71200000  1.0
  O  O64  1  0.68510000  0.32850000  0.77840000  1.0
  O  O65  1  0.62310000  0.45190000  0.91180000  1.0
  O  O66  1  0.80020000  0.46840000  0.78760000  1.0
  O  O67  1  0.48390000  0.30950000  0.81590000  1.0
  O  O68  1  0.24950000  0.77780000  0.61990000  1.0
  O  O69  1  0.57200000  0.67640000  0.71590000  1.0
  O  O70  1  0.30160000  0.61810000  0.52920000  1.0
  O  O71  1  0.46170000  0.55040000  0.71470000  1.0
  O  O72  1  0.16880000  0.24520000  0.35900000  1.0
  O  O73  1  0.52320000  0.38280000  0.60470000  1.0
  O  O74  1  0.25500000  0.50880000  0.75320000  1.0
  O  O75  1  0.69890000  0.06980000  0.91480000  1.0
  O  O76  1  0.53940000  0.15310000  0.71270000  1.0
  O  O77  1  0.66720000  0.63440000  0.36690000  1.0
  O  O78  1  0.12260000  0.34120000  0.16390000  1.0
