# generated using pymatgen
data_AgH12(C3N)6
_symmetry_space_group_name_H-M   'P 1'
_cell_length_a   21.97170000
_cell_length_b   16.66920000
_cell_length_c   25.62890000
_cell_angle_alpha   90.00000000
_cell_angle_beta   115.34400000
_cell_angle_gamma   90.00000000
_symmetry_Int_Tables_number   1
_chemical_formula_structural   AgH12(C3N)6
_chemical_formula_sum   'Ag16 H192 C288 N96'
_cell_volume   8483.17962573
_cell_formula_units_Z   16
loop_
 _symmetry_equiv_pos_site_id
 _symmetry_equiv_pos_as_xyz
  1  'x, y, z'
loop_
 _atom_site_type_symbol
 _atom_site_label
 _atom_site_symmetry_multiplicity
 _atom_site_fract_x
 _atom_site_fract_y
 _atom_site_fract_z
 _atom_site_occupancy
  Ag  Ag0  1  0.27371000  0.20896000  0.86808000  1.0
  Ag  Ag1  1  0.29539000  0.00244000  0.36756000  1.0
  Ag  Ag2  1  0.77371000  0.70896000  0.86808000  1.0
  Ag  Ag3  1  0.79539000  0.50244000  0.36756000  1.0
  Ag  Ag4  1  0.72629000  0.20896000  0.63192000  1.0
  Ag  Ag5  1  0.70461000  0.00244000  0.13244000  1.0
  Ag  Ag6  1  0.22629000  0.70896000  0.63192000  1.0
  Ag  Ag7  1  0.20461000  0.50244000  0.13244000  1.0
  Ag  Ag8  1  0.72629000  0.79104000  0.13192000  1.0
  Ag  Ag9  1  0.70461000  0.99756000  0.63244000  1.0
  Ag  Ag10  1  0.22629000  0.29104000  0.13192000  1.0
  Ag  Ag11  1  0.20461000  0.49756000  0.63244000  1.0
  Ag  Ag12  1  0.27371000  0.79104000  0.36808000  1.0
  Ag  Ag13  1  0.29539000  0.99756000  0.86756000  1.0
  Ag  Ag14  1  0.77371000  0.29104000  0.36808000  1.0
  Ag  Ag15  1  0.79539000  0.49756000  0.86756000  1.0
  H  H16  1  0.90170000  0.40340000  0.35190000  1.0
  H  H17  1  0.08490000  0.04010000  0.88960000  1.0
  H  H18  1  0.00090000  0.38360000  0.54910000  1.0
  H  H19  1  0.88530000  0.80830000  0.84910000  1.0
  H  H20  1  0.26370000  0.13230000  0.53670000  1.0
  H  H21  1  0.31130000  0.06580000  0.48480000  1.0
  H  H22  1  0.24600000  0.07990000  0.03880000  1.0
  H  H23  1  0.98040000  0.88440000  0.89340000  1.0
  H  H24  1  0.29280000  0.14900000  0.98810000  1.0
  H  H25  1  0.00170000  0.33550000  0.39600000  1.0
  H  H26  1  0.97500000  0.83710000  0.04520000  1.0
  H  H27  1  0.27590000  0.18960000  0.66020000  1.0
  H  H28  1  0.32110000  0.17430000  0.75890000  1.0
  H  H29  1  0.13820000  0.11140000  0.84460000  1.0
  H  H30  1  0.11360000  0.29210000  0.66540000  1.0
  H  H31  1  0.87770000  0.76690000  0.99490000  1.0
  H  H32  1  0.16430000  0.27410000  0.76370000  1.0
  H  H33  1  0.11600000  0.20400000  0.38600000  1.0
  H  H34  1  0.90220000  0.45340000  0.50050000  1.0
  H  H35  1  0.27670000  0.07960000  0.25420000  1.0
  H  H36  1  0.22770000  0.06800000  0.15540000  1.0
  H  H37  1  0.09510000  0.91280000  0.16800000  1.0
  H  H38  1  0.15160000  0.92490000  0.26700000  1.0
  H  H39  1  0.16520000  0.12920000  0.33940000  1.0
  H  H40  1  0.40170000  0.90340000  0.35190000  1.0
  H  H41  1  0.58490000  0.54010000  0.88960000  1.0
  H  H42  1  0.50090000  0.88360000  0.54910000  1.0
  H  H43  1  0.38530000  0.30830000  0.84910000  1.0
  H  H44  1  0.76370000  0.63230000  0.53670000  1.0
  H  H45  1  0.81130000  0.56580000  0.48480000  1.0
  H  H46  1  0.74600000  0.57990000  0.03880000  1.0
  H  H47  1  0.48040000  0.38440000  0.89340000  1.0
  H  H48  1  0.79280000  0.64900000  0.98810000  1.0
  H  H49  1  0.50170000  0.83550000  0.39600000  1.0
  H  H50  1  0.47500000  0.33710000  0.04520000  1.0
  H  H51  1  0.77590000  0.68960000  0.66020000  1.0
  H  H52  1  0.82110000  0.67430000  0.75890000  1.0
  H  H53  1  0.63820000  0.61140000  0.84460000  1.0
  H  H54  1  0.61360000  0.79210000  0.66540000  1.0
  H  H55  1  0.37770000  0.26690000  0.99490000  1.0
  H  H56  1  0.66430000  0.77410000  0.76370000  1.0
  H  H57  1  0.61600000  0.70400000  0.38600000  1.0
  H  H58  1  0.40220000  0.95340000  0.50050000  1.0
  H  H59  1  0.77670000  0.57960000  0.25420000  1.0
  H  H60  1  0.72770000  0.56800000  0.15540000  1.0
  H  H61  1  0.59510000  0.41280000  0.16800000  1.0
  H  H62  1  0.65160000  0.42490000  0.26700000  1.0
  H  H63  1  0.66520000  0.62920000  0.33940000  1.0
  H  H64  1  0.09830000  0.40340000  0.14810000  1.0
  H  H65  1  0.91510000  0.04010000  0.61040000  1.0
  H  H66  1  0.99910000  0.38360000  0.95090000  1.0
  H  H67  1  0.11470000  0.80830000  0.65090000  1.0
  H  H68  1  0.73630000  0.13230000  0.96330000  1.0
  H  H69  1  0.68870000  0.06580000  0.01520000  1.0
  H  H70  1  0.75400000  0.07990000  0.46120000  1.0
  H  H71  1  0.01960000  0.88440000  0.60660000  1.0
  H  H72  1  0.70720000  0.14900000  0.51190000  1.0
  H  H73  1  0.99830000  0.33550000  0.10400000  1.0
  H  H74  1  0.02500000  0.83710000  0.45480000  1.0
  H  H75  1  0.72410000  0.18960000  0.83980000  1.0
  H  H76  1  0.67890000  0.17430000  0.74110000  1.0
  H  H77  1  0.86180000  0.11140000  0.65540000  1.0
  H  H78  1  0.88640000  0.29210000  0.83460000  1.0
  H  H79  1  0.12230000  0.76690000  0.50510000  1.0
  H  H80  1  0.83570000  0.27410000  0.73630000  1.0
  H  H81  1  0.88400000  0.20400000  0.11400000  1.0
  H  H82  1  0.09780000  0.45340000  0.99950000  1.0
  H  H83  1  0.72330000  0.07960000  0.24580000  1.0
  H  H84  1  0.77230000  0.06800000  0.34460000  1.0
  H  H85  1  0.90490000  0.91280000  0.33200000  1.0
  H  H86  1  0.84840000  0.92490000  0.23300000  1.0
  H  H87  1  0.83480000  0.12920000  0.16060000  1.0
  H  H88  1  0.59830000  0.90340000  0.14810000  1.0
  H  H89  1  0.41510000  0.54010000  0.61040000  1.0
  H  H90  1  0.49910000  0.88360000  0.95090000  1.0
  H  H91  1  0.61470000  0.30830000  0.65090000  1.0
  H  H92  1  0.23630000  0.63230000  0.96330000  1.0
  H  H93  1  0.18870000  0.56580000  0.01520000  1.0
  H  H94  1  0.25400000  0.57990000  0.46120000  1.0
  H  H95  1  0.51960000  0.38440000  0.60660000  1.0
  H  H96  1  0.20720000  0.64900000  0.51190000  1.0
  H  H97  1  0.49830000  0.83550000  0.10400000  1.0
  H  H98  1  0.52500000  0.33710000  0.45480000  1.0
  H  H99  1  0.22410000  0.68960000  0.83980000  1.0
  H  H100  1  0.17890000  0.67430000  0.74110000  1.0
  H  H101  1  0.36180000  0.61140000  0.65540000  1.0
  H  H102  1  0.38640000  0.79210000  0.83460000  1.0
  H  H103  1  0.62230000  0.26690000  0.50510000  1.0
  H  H104  1  0.33570000  0.77410000  0.73630000  1.0
  H  H105  1  0.38400000  0.70400000  0.11400000  1.0
  H  H106  1  0.59780000  0.95340000  0.99950000  1.0
  H  H107  1  0.22330000  0.57960000  0.24580000  1.0
  H  H108  1  0.27230000  0.56800000  0.34460000  1.0
  H  H109  1  0.40490000  0.41280000  0.33200000  1.0
  H  H110  1  0.34840000  0.42490000  0.23300000  1.0
  H  H111  1  0.33480000  0.62920000  0.16060000  1.0
  H  H112  1  0.09830000  0.59660000  0.64810000  1.0
  H  H113  1  0.91510000  0.95990000  0.11040000  1.0
  H  H114  1  0.99910000  0.61640000  0.45090000  1.0
  H  H115  1  0.11470000  0.19170000  0.15090000  1.0
  H  H116  1  0.73630000  0.86770000  0.46330000  1.0
  H  H117  1  0.68870000  0.93420000  0.51520000  1.0
  H  H118  1  0.75400000  0.92010000  0.96120000  1.0
  H  H119  1  0.01960000  0.11560000  0.10660000  1.0
  H  H120  1  0.70720000  0.85100000  0.01190000  1.0
  H  H121  1  0.99830000  0.66450000  0.60400000  1.0
  H  H122  1  0.02500000  0.16290000  0.95480000  1.0
  H  H123  1  0.72410000  0.81040000  0.33980000  1.0
  H  H124  1  0.67890000  0.82570000  0.24110000  1.0
  H  H125  1  0.86180000  0.88860000  0.15540000  1.0
  H  H126  1  0.88640000  0.70790000  0.33460000  1.0
  H  H127  1  0.12230000  0.23310000  0.00510000  1.0
  H  H128  1  0.83570000  0.72590000  0.23630000  1.0
  H  H129  1  0.88400000  0.79600000  0.61400000  1.0
  H  H130  1  0.09780000  0.54660000  0.49950000  1.0
  H  H131  1  0.72330000  0.92040000  0.74580000  1.0
  H  H132  1  0.77230000  0.93200000  0.84460000  1.0
  H  H133  1  0.90490000  0.08720000  0.83200000  1.0
  H  H134  1  0.84840000  0.07510000  0.73300000  1.0
  H  H135  1  0.83480000  0.87080000  0.66060000  1.0
  H  H136  1  0.59830000  0.09660000  0.64810000  1.0
  H  H137  1  0.41510000  0.45990000  0.11040000  1.0
  H  H138  1  0.49910000  0.11640000  0.45090000  1.0
  H  H139  1  0.61470000  0.69170000  0.15090000  1.0
  H  H140  1  0.23630000  0.36770000  0.46330000  1.0
  H  H141  1  0.18870000  0.43420000  0.51520000  1.0
  H  H142  1  0.25400000  0.42010000  0.96120000  1.0
  H  H143  1  0.51960000  0.61560000  0.10660000  1.0
  H  H144  1  0.20720000  0.35100000  0.01190000  1.0
  H  H145  1  0.49830000  0.16450000  0.60400000  1.0
  H  H146  1  0.52500000  0.66290000  0.95480000  1.0
  H  H147  1  0.22410000  0.31040000  0.33980000  1.0
  H  H148  1  0.17890000  0.32570000  0.24110000  1.0
  H  H149  1  0.36180000  0.38860000  0.15540000  1.0
  H  H150  1  0.38640000  0.20790000  0.33460000  1.0
  H  H151  1  0.62230000  0.73310000  0.00510000  1.0
  H  H152  1  0.33570000  0.22590000  0.23630000  1.0
  H  H153  1  0.38400000  0.29600000  0.61400000  1.0
  H  H154  1  0.59780000  0.04660000  0.49950000  1.0
  H  H155  1  0.22330000  0.42040000  0.74580000  1.0
  H  H156  1  0.27230000  0.43200000  0.84460000  1.0
  H  H157  1  0.40490000  0.58720000  0.83200000  1.0
  H  H158  1  0.34840000  0.57510000  0.73300000  1.0
  H  H159  1  0.33480000  0.37080000  0.66060000  1.0
  H  H160  1  0.90170000  0.59660000  0.85190000  1.0
  H  H161  1  0.08490000  0.95990000  0.38960000  1.0
  H  H162  1  0.00090000  0.61640000  0.04910000  1.0
  H  H163  1  0.88530000  0.19170000  0.34910000  1.0
  H  H164  1  0.26370000  0.86770000  0.03670000  1.0
  H  H165  1  0.31130000  0.93420000  0.98480000  1.0
  H  H166  1  0.24600000  0.92010000  0.53880000  1.0
  H  H167  1  0.98040000  0.11560000  0.39340000  1.0
  H  H168  1  0.29280000  0.85100000  0.48810000  1.0
  H  H169  1  0.00170000  0.66450000  0.89600000  1.0
  H  H170  1  0.97500000  0.16290000  0.54520000  1.0
  H  H171  1  0.27590000  0.81040000  0.16020000  1.0
  H  H172  1  0.32110000  0.82570000  0.25890000  1.0
  H  H173  1  0.13820000  0.88860000  0.34460000  1.0
  H  H174  1  0.11360000  0.70790000  0.16540000  1.0
  H  H175  1  0.87770000  0.23310000  0.49490000  1.0
  H  H176  1  0.16430000  0.72590000  0.26370000  1.0
  H  H177  1  0.11600000  0.79600000  0.88600000  1.0
  H  H178  1  0.90220000  0.54660000  0.00050000  1.0
  H  H179  1  0.27670000  0.92040000  0.75420000  1.0
  H  H180  1  0.22770000  0.93200000  0.65540000  1.0
  H  H181  1  0.09510000  0.08720000  0.66800000  1.0
  H  H182  1  0.15160000  0.07510000  0.76700000  1.0
  H  H183  1  0.16520000  0.87080000  0.83940000  1.0
  H  H184  1  0.40170000  0.09660000  0.85190000  1.0
  H  H185  1  0.58490000  0.45990000  0.38960000  1.0
  H  H186  1  0.50090000  0.11640000  0.04910000  1.0
  H  H187  1  0.38530000  0.69170000  0.34910000  1.0
  H  H188  1  0.76370000  0.36770000  0.03670000  1.0
  H  H189  1  0.81130000  0.43420000  0.98480000  1.0
  H  H190  1  0.74600000  0.42010000  0.53880000  1.0
  H  H191  1  0.48040000  0.61560000  0.39340000  1.0
  H  H192  1  0.79280000  0.35100000  0.48810000  1.0
  H  H193  1  0.50170000  0.16450000  0.89600000  1.0
  H  H194  1  0.47500000  0.66290000  0.54520000  1.0
  H  H195  1  0.77590000  0.31040000  0.16020000  1.0
  H  H196  1  0.82110000  0.32570000  0.25890000  1.0
  H  H197  1  0.63820000  0.38860000  0.34460000  1.0
  H  H198  1  0.61360000  0.20790000  0.16540000  1.0
  H  H199  1  0.37770000  0.73310000  0.49490000  1.0
  H  H200  1  0.66430000  0.22590000  0.26370000  1.0
  H  H201  1  0.61600000  0.29600000  0.88600000  1.0
  H  H202  1  0.40220000  0.04660000  0.00050000  1.0
  H  H203  1  0.77670000  0.42040000  0.75420000  1.0
  H  H204  1  0.72770000  0.43200000  0.65540000  1.0
  H  H205  1  0.59510000  0.58720000  0.66800000  1.0
  H  H206  1  0.65160000  0.57510000  0.76700000  1.0
  H  H207  1  0.66520000  0.37080000  0.83940000  1.0
  C  C208  1  0.92210000  0.39970000  0.39200000  1.0
  C  C209  1  0.15350000  0.22000000  0.50080000  1.0
  C  C210  1  0.12760000  0.06140000  0.91090000  1.0
  C  C211  1  0.12800000  0.00720000  0.00190000  1.0
  C  C212  1  0.98170000  0.38700000  0.50900000  1.0
  C  C213  1  0.90300000  0.81540000  0.88890000  1.0
  C  C214  1  0.07480000  0.30150000  0.50630000  1.0
  C  C215  1  0.24340000  0.13340000  0.49650000  1.0
  C  C216  1  0.27110000  0.09320000  0.46480000  1.0
  C  C217  1  0.22280000  0.08500000  0.99900000  1.0
  C  C218  1  0.15960000  0.05170000  0.96950000  1.0
  C  C219  1  0.12740000  0.97590000  0.08750000  1.0
  C  C220  1  0.15830000  0.98560000  0.15120000  1.0
  C  C221  1  0.96060000  0.86130000  0.91530000  1.0
  C  C222  1  0.18390000  0.17570000  0.46630000  1.0
  C  C223  1  0.19000000  0.24240000  0.65140000  1.0
  C  C224  1  0.25070000  0.12590000  0.96780000  1.0
  C  C225  1  0.98210000  0.35800000  0.41830000  1.0
  C  C226  1  0.95720000  0.83380000  0.00510000  1.0
  C  C227  1  0.25200000  0.20730000  0.68050000  1.0
  C  C228  1  0.04950000  0.92280000  0.00510000  1.0
  C  C229  1  0.27910000  0.19820000  0.73990000  1.0
  C  C230  1  0.16060000  0.10390000  0.88430000  1.0
  C  C231  1  0.01260000  0.34990000  0.47700000  1.0
  C  C232  1  0.15580000  0.26820000  0.68320000  1.0
  C  C233  1  0.15830000  0.25160000  0.58740000  1.0
  C  C234  1  0.89900000  0.79070000  0.97430000  1.0
  C  C235  1  0.18710000  0.25660000  0.74240000  1.0
  C  C236  1  0.15520000  0.17520000  0.40700000  1.0
  C  C237  1  0.92220000  0.42860000  0.47930000  1.0
  C  C238  1  0.24120000  0.04390000  0.23680000  1.0
  C  C239  1  0.21180000  0.03770000  0.17740000  1.0
  C  C240  1  0.13330000  0.94490000  0.18460000  1.0
  C  C241  1  0.98880000  0.87270000  0.97470000  1.0
  C  C242  1  0.16740000  0.95380000  0.24420000  1.0
  C  C243  1  0.18590000  0.13120000  0.37950000  1.0
  C  C244  1  0.42210000  0.89970000  0.39200000  1.0
  C  C245  1  0.65350000  0.72000000  0.50080000  1.0
  C  C246  1  0.62760000  0.56140000  0.91090000  1.0
  C  C247  1  0.62800000  0.50720000  0.00190000  1.0
  C  C248  1  0.48170000  0.88700000  0.50900000  1.0
  C  C249  1  0.40300000  0.31540000  0.88890000  1.0
  C  C250  1  0.57480000  0.80150000  0.50630000  1.0
  C  C251  1  0.74340000  0.63340000  0.49650000  1.0
  C  C252  1  0.77110000  0.59320000  0.46480000  1.0
  C  C253  1  0.72280000  0.58500000  0.99900000  1.0
  C  C254  1  0.65960000  0.55170000  0.96950000  1.0
  C  C255  1  0.62740000  0.47590000  0.08750000  1.0
  C  C256  1  0.65830000  0.48560000  0.15120000  1.0
  C  C257  1  0.46060000  0.36130000  0.91530000  1.0
  C  C258  1  0.68390000  0.67570000  0.46630000  1.0
  C  C259  1  0.69000000  0.74240000  0.65140000  1.0
  C  C260  1  0.75070000  0.62590000  0.96780000  1.0
  C  C261  1  0.48210000  0.85800000  0.41830000  1.0
  C  C262  1  0.45720000  0.33380000  0.00510000  1.0
  C  C263  1  0.75200000  0.70730000  0.68050000  1.0
  C  C264  1  0.54950000  0.42280000  0.00510000  1.0
  C  C265  1  0.77910000  0.69820000  0.73990000  1.0
  C  C266  1  0.66060000  0.60390000  0.88430000  1.0
  C  C267  1  0.51260000  0.84990000  0.47700000  1.0
  C  C268  1  0.65580000  0.76820000  0.68320000  1.0
  C  C269  1  0.65830000  0.75160000  0.58740000  1.0
  C  C270  1  0.39900000  0.29070000  0.97430000  1.0
  C  C271  1  0.68710000  0.75660000  0.74240000  1.0
  C  C272  1  0.65520000  0.67520000  0.40700000  1.0
  C  C273  1  0.42220000  0.92860000  0.47930000  1.0
  C  C274  1  0.74120000  0.54390000  0.23680000  1.0
  C  C275  1  0.71180000  0.53770000  0.17740000  1.0
  C  C276  1  0.63330000  0.44490000  0.18460000  1.0
  C  C277  1  0.48880000  0.37270000  0.97470000  1.0
  C  C278  1  0.66740000  0.45380000  0.24420000  1.0
  C  C279  1  0.68590000  0.63120000  0.37950000  1.0
  C  C280  1  0.07790000  0.39970000  0.10800000  1.0
  C  C281  1  0.84650000  0.22000000  0.99920000  1.0
  C  C282  1  0.87240000  0.06140000  0.58910000  1.0
  C  C283  1  0.87200000  0.00720000  0.49810000  1.0
  C  C284  1  0.01830000  0.38700000  0.99100000  1.0
  C  C285  1  0.09700000  0.81540000  0.61110000  1.0
  C  C286  1  0.92520000  0.30150000  0.99370000  1.0
  C  C287  1  0.75660000  0.13340000  0.00350000  1.0
  C  C288  1  0.72890000  0.09320000  0.03520000  1.0
  C  C289  1  0.77720000  0.08500000  0.50100000  1.0
  C  C290  1  0.84040000  0.05170000  0.53050000  1.0
  C  C291  1  0.87260000  0.97590000  0.41250000  1.0
  C  C292  1  0.84170000  0.98560000  0.34880000  1.0
  C  C293  1  0.03940000  0.86130000  0.58470000  1.0
  C  C294  1  0.81610000  0.17570000  0.03370000  1.0
  C  C295  1  0.81000000  0.24240000  0.84860000  1.0
  C  C296  1  0.74930000  0.12590000  0.53220000  1.0
  C  C297  1  0.01790000  0.35800000  0.08170000  1.0
  C  C298  1  0.04280000  0.83380000  0.49490000  1.0
  C  C299  1  0.74800000  0.20730000  0.81950000  1.0
  C  C300  1  0.95050000  0.92280000  0.49490000  1.0
  C  C301  1  0.72090000  0.19820000  0.76010000  1.0
  C  C302  1  0.83940000  0.10390000  0.61570000  1.0
  C  C303  1  0.98740000  0.34990000  0.02300000  1.0
  C  C304  1  0.84420000  0.26820000  0.81680000  1.0
  C  C305  1  0.84170000  0.25160000  0.91260000  1.0
  C  C306  1  0.10100000  0.79070000  0.52570000  1.0
  C  C307  1  0.81290000  0.25660000  0.75760000  1.0
  C  C308  1  0.84480000  0.17520000  0.09300000  1.0
  C  C309  1  0.07780000  0.42860000  0.02070000  1.0
  C  C310  1  0.75880000  0.04390000  0.26320000  1.0
  C  C311  1  0.78820000  0.03770000  0.32260000  1.0
  C  C312  1  0.86670000  0.94490000  0.31540000  1.0
  C  C313  1  0.01120000  0.87270000  0.52530000  1.0
  C  C314  1  0.83260000  0.95380000  0.25580000  1.0
  C  C315  1  0.81410000  0.13120000  0.12050000  1.0
  C  C316  1  0.57790000  0.89970000  0.10800000  1.0
  C  C317  1  0.34650000  0.72000000  0.99920000  1.0
  C  C318  1  0.37240000  0.56140000  0.58910000  1.0
  C  C319  1  0.37200000  0.50720000  0.49810000  1.0
  C  C320  1  0.51830000  0.88700000  0.99100000  1.0
  C  C321  1  0.59700000  0.31540000  0.61110000  1.0
  C  C322  1  0.42520000  0.80150000  0.99370000  1.0
  C  C323  1  0.25660000  0.63340000  0.00350000  1.0
  C  C324  1  0.22890000  0.59320000  0.03520000  1.0
  C  C325  1  0.27720000  0.58500000  0.50100000  1.0
  C  C326  1  0.34040000  0.55170000  0.53050000  1.0
  C  C327  1  0.37260000  0.47590000  0.41250000  1.0
  C  C328  1  0.34170000  0.48560000  0.34880000  1.0
  C  C329  1  0.53940000  0.36130000  0.58470000  1.0
  C  C330  1  0.31610000  0.67570000  0.03370000  1.0
  C  C331  1  0.31000000  0.74240000  0.84860000  1.0
  C  C332  1  0.24930000  0.62590000  0.53220000  1.0
  C  C333  1  0.51790000  0.85800000  0.08170000  1.0
  C  C334  1  0.54280000  0.33380000  0.49490000  1.0
  C  C335  1  0.24800000  0.70730000  0.81950000  1.0
  C  C336  1  0.45050000  0.42280000  0.49490000  1.0
  C  C337  1  0.22090000  0.69820000  0.76010000  1.0
  C  C338  1  0.33940000  0.60390000  0.61570000  1.0
  C  C339  1  0.48740000  0.84990000  0.02300000  1.0
  C  C340  1  0.34420000  0.76820000  0.81680000  1.0
  C  C341  1  0.34170000  0.75160000  0.91260000  1.0
  C  C342  1  0.60100000  0.29070000  0.52570000  1.0
  C  C343  1  0.31290000  0.75660000  0.75760000  1.0
  C  C344  1  0.34480000  0.67520000  0.09300000  1.0
  C  C345  1  0.57780000  0.92860000  0.02070000  1.0
  C  C346  1  0.25880000  0.54390000  0.26320000  1.0
  C  C347  1  0.28820000  0.53770000  0.32260000  1.0
  C  C348  1  0.36670000  0.44490000  0.31540000  1.0
  C  C349  1  0.51120000  0.37270000  0.52530000  1.0
  C  C350  1  0.33260000  0.45380000  0.25580000  1.0
  C  C351  1  0.31410000  0.63120000  0.12050000  1.0
  C  C352  1  0.07790000  0.60030000  0.60800000  1.0
  C  C353  1  0.84650000  0.78000000  0.49920000  1.0
  C  C354  1  0.87240000  0.93860000  0.08910000  1.0
  C  C355  1  0.87200000  0.99280000  0.99810000  1.0
  C  C356  1  0.01830000  0.61300000  0.49100000  1.0
  C  C357  1  0.09700000  0.18460000  0.11110000  1.0
  C  C358  1  0.92520000  0.69850000  0.49370000  1.0
  C  C359  1  0.75660000  0.86660000  0.50350000  1.0
  C  C360  1  0.72890000  0.90680000  0.53520000  1.0
  C  C361  1  0.77720000  0.91500000  0.00100000  1.0
  C  C362  1  0.84040000  0.94830000  0.03050000  1.0
  C  C363  1  0.87260000  0.02410000  0.91250000  1.0
  C  C364  1  0.84170000  0.01440000  0.84880000  1.0
  C  C365  1  0.03940000  0.13870000  0.08470000  1.0
  C  C366  1  0.81610000  0.82430000  0.53370000  1.0
  C  C367  1  0.81000000  0.75760000  0.34860000  1.0
  C  C368  1  0.74930000  0.87410000  0.03220000  1.0
  C  C369  1  0.01790000  0.64200000  0.58170000  1.0
  C  C370  1  0.04280000  0.16620000  0.99490000  1.0
  C  C371  1  0.74800000  0.79270000  0.31950000  1.0
  C  C372  1  0.95050000  0.07720000  0.99490000  1.0
  C  C373  1  0.72090000  0.80180000  0.26010000  1.0
  C  C374  1  0.83940000  0.89610000  0.11570000  1.0
  C  C375  1  0.98740000  0.65010000  0.52300000  1.0
  C  C376  1  0.84420000  0.73180000  0.31680000  1.0
  C  C377  1  0.84170000  0.74840000  0.41260000  1.0
  C  C378  1  0.10100000  0.20930000  0.02570000  1.0
  C  C379  1  0.81290000  0.74340000  0.25760000  1.0
  C  C380  1  0.84480000  0.82480000  0.59300000  1.0
  C  C381  1  0.07780000  0.57140000  0.52070000  1.0
  C  C382  1  0.75880000  0.95610000  0.76320000  1.0
  C  C383  1  0.78820000  0.96230000  0.82260000  1.0
  C  C384  1  0.86670000  0.05510000  0.81540000  1.0
  C  C385  1  0.01120000  0.12730000  0.02530000  1.0
  C  C386  1  0.83260000  0.04620000  0.75580000  1.0
  C  C387  1  0.81410000  0.86880000  0.62050000  1.0
  C  C388  1  0.57790000  0.10030000  0.60800000  1.0
  C  C389  1  0.34650000  0.28000000  0.49920000  1.0
  C  C390  1  0.37240000  0.43860000  0.08910000  1.0
  C  C391  1  0.37200000  0.49280000  0.99810000  1.0
  C  C392  1  0.51830000  0.11300000  0.49100000  1.0
  C  C393  1  0.59700000  0.68460000  0.11110000  1.0
  C  C394  1  0.42520000  0.19850000  0.49370000  1.0
  C  C395  1  0.25660000  0.36660000  0.50350000  1.0
  C  C396  1  0.22890000  0.40680000  0.53520000  1.0
  C  C397  1  0.27720000  0.41500000  0.00100000  1.0
  C  C398  1  0.34040000  0.44830000  0.03050000  1.0
  C  C399  1  0.37260000  0.52410000  0.91250000  1.0
  C  C400  1  0.34170000  0.51440000  0.84880000  1.0
  C  C401  1  0.53940000  0.63870000  0.08470000  1.0
  C  C402  1  0.31610000  0.32430000  0.53370000  1.0
  C  C403  1  0.31000000  0.25760000  0.34860000  1.0
  C  C404  1  0.24930000  0.37410000  0.03220000  1.0
  C  C405  1  0.51790000  0.14200000  0.58170000  1.0
  C  C406  1  0.54280000  0.66620000  0.99490000  1.0
  C  C407  1  0.24800000  0.29270000  0.31950000  1.0
  C  C408  1  0.45050000  0.57720000  0.99490000  1.0
  C  C409  1  0.22090000  0.30180000  0.26010000  1.0
  C  C410  1  0.33940000  0.39610000  0.11570000  1.0
  C  C411  1  0.48740000  0.15010000  0.52300000  1.0
  C  C412  1  0.34420000  0.23180000  0.31680000  1.0
  C  C413  1  0.34170000  0.24840000  0.41260000  1.0
  C  C414  1  0.60100000  0.70930000  0.02570000  1.0
  C  C415  1  0.31290000  0.24340000  0.25760000  1.0
  C  C416  1  0.34480000  0.32480000  0.59300000  1.0
  C  C417  1  0.57780000  0.07140000  0.52070000  1.0
  C  C418  1  0.25880000  0.45610000  0.76320000  1.0
  C  C419  1  0.28820000  0.46230000  0.82260000  1.0
  C  C420  1  0.36670000  0.55510000  0.81540000  1.0
  C  C421  1  0.51120000  0.62730000  0.02530000  1.0
  C  C422  1  0.33260000  0.54620000  0.75580000  1.0
  C  C423  1  0.31410000  0.36880000  0.62050000  1.0
  C  C424  1  0.92210000  0.60030000  0.89200000  1.0
  C  C425  1  0.15350000  0.78000000  0.00080000  1.0
  C  C426  1  0.12760000  0.93860000  0.41090000  1.0
  C  C427  1  0.12800000  0.99280000  0.50190000  1.0
  C  C428  1  0.98170000  0.61300000  0.00900000  1.0
  C  C429  1  0.90300000  0.18460000  0.38890000  1.0
  C  C430  1  0.07480000  0.69850000  0.00630000  1.0
  C  C431  1  0.24340000  0.86660000  0.99650000  1.0
  C  C432  1  0.27110000  0.90680000  0.96480000  1.0
  C  C433  1  0.22280000  0.91500000  0.49900000  1.0
  C  C434  1  0.15960000  0.94830000  0.46950000  1.0
  C  C435  1  0.12740000  0.02410000  0.58750000  1.0
  C  C436  1  0.15830000  0.01440000  0.65120000  1.0
  C  C437  1  0.96060000  0.13870000  0.41530000  1.0
  C  C438  1  0.18390000  0.82430000  0.96630000  1.0
  C  C439  1  0.19000000  0.75760000  0.15140000  1.0
  C  C440  1  0.25070000  0.87410000  0.46780000  1.0
  C  C441  1  0.98210000  0.64200000  0.91830000  1.0
  C  C442  1  0.95720000  0.16620000  0.50510000  1.0
  C  C443  1  0.25200000  0.79270000  0.18050000  1.0
  C  C444  1  0.04950000  0.07720000  0.50510000  1.0
  C  C445  1  0.27910000  0.80180000  0.23990000  1.0
  C  C446  1  0.16060000  0.89610000  0.38430000  1.0
  C  C447  1  0.01260000  0.65010000  0.97700000  1.0
  C  C448  1  0.15580000  0.73180000  0.18320000  1.0
  C  C449  1  0.15830000  0.74840000  0.08740000  1.0
  C  C450  1  0.89900000  0.20930000  0.47430000  1.0
  C  C451  1  0.18710000  0.74340000  0.24240000  1.0
  C  C452  1  0.15520000  0.82480000  0.90700000  1.0
  C  C453  1  0.92220000  0.57140000  0.97930000  1.0
  C  C454  1  0.24120000  0.95610000  0.73680000  1.0
  C  C455  1  0.21180000  0.96230000  0.67740000  1.0
  C  C456  1  0.13330000  0.05510000  0.68460000  1.0
  C  C457  1  0.98880000  0.12730000  0.47470000  1.0
  C  C458  1  0.16740000  0.04620000  0.74420000  1.0
  C  C459  1  0.18590000  0.86880000  0.87950000  1.0
  C  C460  1  0.42210000  0.10030000  0.89200000  1.0
  C  C461  1  0.65350000  0.28000000  0.00080000  1.0
  C  C462  1  0.62760000  0.43860000  0.41090000  1.0
  C  C463  1  0.62800000  0.49280000  0.50190000  1.0
  C  C464  1  0.48170000  0.11300000  0.00900000  1.0
  C  C465  1  0.40300000  0.68460000  0.38890000  1.0
  C  C466  1  0.57480000  0.19850000  0.00630000  1.0
  C  C467  1  0.74340000  0.36660000  0.99650000  1.0
  C  C468  1  0.77110000  0.40680000  0.96480000  1.0
  C  C469  1  0.72280000  0.41500000  0.49900000  1.0
  C  C470  1  0.65960000  0.44830000  0.46950000  1.0
  C  C471  1  0.62740000  0.52410000  0.58750000  1.0
  C  C472  1  0.65830000  0.51440000  0.65120000  1.0
  C  C473  1  0.46060000  0.63870000  0.41530000  1.0
  C  C474  1  0.68390000  0.32430000  0.96630000  1.0
  C  C475  1  0.69000000  0.25760000  0.15140000  1.0
  C  C476  1  0.75070000  0.37410000  0.46780000  1.0
  C  C477  1  0.48210000  0.14200000  0.91830000  1.0
  C  C478  1  0.45720000  0.66620000  0.50510000  1.0
  C  C479  1  0.75200000  0.29270000  0.18050000  1.0
  C  C480  1  0.54950000  0.57720000  0.50510000  1.0
  C  C481  1  0.77910000  0.30180000  0.23990000  1.0
  C  C482  1  0.66060000  0.39610000  0.38430000  1.0
  C  C483  1  0.51260000  0.15010000  0.97700000  1.0
  C  C484  1  0.65580000  0.23180000  0.18320000  1.0
  C  C485  1  0.65830000  0.24840000  0.08740000  1.0
  C  C486  1  0.39900000  0.70930000  0.47430000  1.0
  C  C487  1  0.68710000  0.24340000  0.24240000  1.0
  C  C488  1  0.65520000  0.32480000  0.90700000  1.0
  C  C489  1  0.42220000  0.07140000  0.97930000  1.0
  C  C490  1  0.74120000  0.45610000  0.73680000  1.0
  C  C491  1  0.71180000  0.46230000  0.67740000  1.0
  C  C492  1  0.63330000  0.55510000  0.68460000  1.0
  C  C493  1  0.48880000  0.62730000  0.47470000  1.0
  C  C494  1  0.66740000  0.54620000  0.74420000  1.0
  C  C495  1  0.68590000  0.36880000  0.87950000  1.0
  N  N496  1  0.22200000  0.13460000  0.91160000  1.0
  N  N497  1  0.87140000  0.78080000  0.91750000  1.0
  N  N498  1  0.22060000  0.00020000  0.27090000  1.0
  N  N499  1  0.07400000  0.96070000  0.97210000  1.0
  N  N500  1  0.07470000  0.92740000  0.06260000  1.0
  N  N501  1  0.15580000  0.01750000  0.05870000  1.0
  N  N502  1  0.24380000  0.09100000  0.40720000  1.0
  N  N503  1  0.89200000  0.43520000  0.42200000  1.0
  N  N504  1  0.24640000  0.22300000  0.77110000  1.0
  N  N505  1  0.09710000  0.26080000  0.47270000  1.0
  N  N506  1  0.10360000  0.29930000  0.56400000  1.0
  N  N507  1  0.18610000  0.21260000  0.55840000  1.0
  N  N508  1  0.72200000  0.63460000  0.91160000  1.0
  N  N509  1  0.37140000  0.28080000  0.91750000  1.0
  N  N510  1  0.72060000  0.50020000  0.27090000  1.0
  N  N511  1  0.57400000  0.46070000  0.97210000  1.0
  N  N512  1  0.57470000  0.42740000  0.06260000  1.0
  N  N513  1  0.65580000  0.51750000  0.05870000  1.0
  N  N514  1  0.74380000  0.59100000  0.40720000  1.0
  N  N515  1  0.39200000  0.93520000  0.42200000  1.0
  N  N516  1  0.74640000  0.72300000  0.77110000  1.0
  N  N517  1  0.59710000  0.76080000  0.47270000  1.0
  N  N518  1  0.60360000  0.79930000  0.56400000  1.0
  N  N519  1  0.68610000  0.71260000  0.55840000  1.0
  N  N520  1  0.77800000  0.13460000  0.58840000  1.0
  N  N521  1  0.12860000  0.78080000  0.58250000  1.0
  N  N522  1  0.77940000  0.00020000  0.22910000  1.0
  N  N523  1  0.92600000  0.96070000  0.52790000  1.0
  N  N524  1  0.92530000  0.92740000  0.43740000  1.0
  N  N525  1  0.84420000  0.01750000  0.44130000  1.0
  N  N526  1  0.75620000  0.09100000  0.09280000  1.0
  N  N527  1  0.10800000  0.43520000  0.07800000  1.0
  N  N528  1  0.75360000  0.22300000  0.72890000  1.0
  N  N529  1  0.90290000  0.26080000  0.02730000  1.0
  N  N530  1  0.89640000  0.29930000  0.93600000  1.0
  N  N531  1  0.81390000  0.21260000  0.94160000  1.0
  N  N532  1  0.27800000  0.63460000  0.58840000  1.0
  N  N533  1  0.62860000  0.28080000  0.58250000  1.0
  N  N534  1  0.27940000  0.50020000  0.22910000  1.0
  N  N535  1  0.42600000  0.46070000  0.52790000  1.0
  N  N536  1  0.42530000  0.42740000  0.43740000  1.0
  N  N537  1  0.34420000  0.51750000  0.44130000  1.0
  N  N538  1  0.25620000  0.59100000  0.09280000  1.0
  N  N539  1  0.60800000  0.93520000  0.07800000  1.0
  N  N540  1  0.25360000  0.72300000  0.72890000  1.0
  N  N541  1  0.40290000  0.76080000  0.02730000  1.0
  N  N542  1  0.39640000  0.79930000  0.93600000  1.0
  N  N543  1  0.31390000  0.71260000  0.94160000  1.0
  N  N544  1  0.77800000  0.86540000  0.08840000  1.0
  N  N545  1  0.12860000  0.21920000  0.08250000  1.0
  N  N546  1  0.77940000  0.99980000  0.72910000  1.0
  N  N547  1  0.92600000  0.03930000  0.02790000  1.0
  N  N548  1  0.92530000  0.07260000  0.93740000  1.0
  N  N549  1  0.84420000  0.98250000  0.94130000  1.0
  N  N550  1  0.75620000  0.90900000  0.59280000  1.0
  N  N551  1  0.10800000  0.56480000  0.57800000  1.0
  N  N552  1  0.75360000  0.77700000  0.22890000  1.0
  N  N553  1  0.90290000  0.73920000  0.52730000  1.0
  N  N554  1  0.89640000  0.70070000  0.43600000  1.0
  N  N555  1  0.81390000  0.78740000  0.44160000  1.0
  N  N556  1  0.27800000  0.36540000  0.08840000  1.0
  N  N557  1  0.62860000  0.71920000  0.08250000  1.0
  N  N558  1  0.27940000  0.49980000  0.72910000  1.0
  N  N559  1  0.42600000  0.53930000  0.02790000  1.0
  N  N560  1  0.42530000  0.57260000  0.93740000  1.0
  N  N561  1  0.34420000  0.48250000  0.94130000  1.0
  N  N562  1  0.25620000  0.40900000  0.59280000  1.0
  N  N563  1  0.60800000  0.06480000  0.57800000  1.0
  N  N564  1  0.25360000  0.27700000  0.22890000  1.0
  N  N565  1  0.40290000  0.23920000  0.52730000  1.0
  N  N566  1  0.39640000  0.20070000  0.43600000  1.0
  N  N567  1  0.31390000  0.28740000  0.44160000  1.0
  N  N568  1  0.22200000  0.86540000  0.41160000  1.0
  N  N569  1  0.87140000  0.21920000  0.41750000  1.0
  N  N570  1  0.22060000  0.99980000  0.77090000  1.0
  N  N571  1  0.07400000  0.03930000  0.47210000  1.0
  N  N572  1  0.07470000  0.07260000  0.56260000  1.0
  N  N573  1  0.15580000  0.98250000  0.55870000  1.0
  N  N574  1  0.24380000  0.90900000  0.90720000  1.0
  N  N575  1  0.89200000  0.56480000  0.92200000  1.0
  N  N576  1  0.24640000  0.77700000  0.27110000  1.0
  N  N577  1  0.09710000  0.73920000  0.97270000  1.0
  N  N578  1  0.10360000  0.70070000  0.06400000  1.0
  N  N579  1  0.18610000  0.78740000  0.05840000  1.0
  N  N580  1  0.72200000  0.36540000  0.41160000  1.0
  N  N581  1  0.37140000  0.71920000  0.41750000  1.0
  N  N582  1  0.72060000  0.49980000  0.77090000  1.0
  N  N583  1  0.57400000  0.53930000  0.47210000  1.0
  N  N584  1  0.57470000  0.57260000  0.56260000  1.0
  N  N585  1  0.65580000  0.48250000  0.55870000  1.0
  N  N586  1  0.74380000  0.40900000  0.90720000  1.0
  N  N587  1  0.39200000  0.06480000  0.92200000  1.0
  N  N588  1  0.74640000  0.27700000  0.27110000  1.0
  N  N589  1  0.59710000  0.23920000  0.97270000  1.0
  N  N590  1  0.60360000  0.20070000  0.06400000  1.0
  N  N591  1  0.68610000  0.28740000  0.05840000  1.0
