# generated using pymatgen
data_GaH5C8O5
_symmetry_space_group_name_H-M   'P 1'
_cell_length_a   19.68010000
_cell_length_b   15.11650000
_cell_length_c   6.67160000
_cell_angle_alpha   90.00000000
_cell_angle_beta   103.75700000
_cell_angle_gamma   90.00000000
_symmetry_Int_Tables_number   1
_chemical_formula_structural   GaH5C8O5
_chemical_formula_sum   'Ga8 H40 C64 O40'
_cell_volume   1927.82568073
_cell_formula_units_Z   8
loop_
 _symmetry_equiv_pos_site_id
 _symmetry_equiv_pos_as_xyz
  1  'x, y, z'
loop_
 _atom_site_type_symbol
 _atom_site_label
 _atom_site_symmetry_multiplicity
 _atom_site_fract_x
 _atom_site_fract_y
 _atom_site_fract_z
 _atom_site_occupancy
  Ga  Ga0  1  0.49630000  0.25000000  0.51410000  1.0
  Ga  Ga1  1  0.50370000  0.75000000  0.98590000  1.0
  Ga  Ga2  1  0.50370000  0.75000000  0.48590000  1.0
  Ga  Ga3  1  0.49630000  0.25000000  0.01410000  1.0
  Ga  Ga4  1  0.00000000  0.50000000  0.00000000  1.0
  Ga  Ga5  1  0.00000000  0.00000000  0.50000000  1.0
  Ga  Ga6  1  0.00000000  0.50000000  0.50000000  1.0
  Ga  Ga7  1  0.00000000  0.00000000  0.00000000  1.0
  H  H8  1  0.78790000  0.09130000  0.85840000  1.0
  H  H9  1  0.66790000  0.11860000  0.72690000  1.0
  H  H10  1  0.70390000  0.15340000  0.15760000  1.0
  H  H11  1  0.82410000  0.12620000  0.28730000  1.0
  H  H12  1  0.28030000  0.31520000  0.84920000  1.0
  H  H13  1  0.15940000  0.34510000  0.70280000  1.0
  H  H14  1  0.21200000  0.42880000  0.17570000  1.0
  H  H15  1  0.33300000  0.39950000  0.31910000  1.0
  H  H16  1  0.49500000  0.37370000  0.27600000  1.0
  H  H17  1  0.99500000  0.61460000  0.26300000  1.0
  H  H18  1  0.21210000  0.59130000  0.64160000  1.0
  H  H19  1  0.33210000  0.61860000  0.77310000  1.0
  H  H20  1  0.29610000  0.65340000  0.34240000  1.0
  H  H21  1  0.17590000  0.62620000  0.21270000  1.0
  H  H22  1  0.71970000  0.81520000  0.65080000  1.0
  H  H23  1  0.84060000  0.84510000  0.79720000  1.0
  H  H24  1  0.78800000  0.92880000  0.32430000  1.0
  H  H25  1  0.66700000  0.89950000  0.18090000  1.0
  H  H26  1  0.50500000  0.87370000  0.22400000  1.0
  H  H27  1  0.00500000  0.11460000  0.23700000  1.0
  H  H28  1  0.21210000  0.90870000  0.14160000  1.0
  H  H29  1  0.33210000  0.88140000  0.27310000  1.0
  H  H30  1  0.29610000  0.84660000  0.84240000  1.0
  H  H31  1  0.17590000  0.87380000  0.71270000  1.0
  H  H32  1  0.71970000  0.68480000  0.15080000  1.0
  H  H33  1  0.84060000  0.65490000  0.29720000  1.0
  H  H34  1  0.78800000  0.57120000  0.82430000  1.0
  H  H35  1  0.66700000  0.60050000  0.68090000  1.0
  H  H36  1  0.50500000  0.62630000  0.72400000  1.0
  H  H37  1  0.00500000  0.38540000  0.73700000  1.0
  H  H38  1  0.78790000  0.40870000  0.35840000  1.0
  H  H39  1  0.66790000  0.38140000  0.22690000  1.0
  H  H40  1  0.70390000  0.34660000  0.65760000  1.0
  H  H41  1  0.82410000  0.37380000  0.78730000  1.0
  H  H42  1  0.28030000  0.18480000  0.34920000  1.0
  H  H43  1  0.15940000  0.15490000  0.20280000  1.0
  H  H44  1  0.21200000  0.07120000  0.67570000  1.0
  H  H45  1  0.33300000  0.10050000  0.81910000  1.0
  H  H46  1  0.49500000  0.12630000  0.77600000  1.0
  H  H47  1  0.99500000  0.88540000  0.76300000  1.0
  C  C48  1  0.81820000  0.10630000  0.58750000  1.0
  C  C49  1  0.77080000  0.10450000  0.71140000  1.0
  C  C50  1  0.69970000  0.12010000  0.63370000  1.0
  C  C51  1  0.67490000  0.13820000  0.42660000  1.0
  C  C52  1  0.72150000  0.14000000  0.30380000  1.0
  C  C53  1  0.79250000  0.12450000  0.38100000  1.0
  C  C54  1  0.89390000  0.08780000  0.67590000  1.0
  C  C55  1  0.60040000  0.15730000  0.33350000  1.0
  C  C56  1  0.31750000  0.35480000  0.59890000  1.0
  C  C57  1  0.26610000  0.33900000  0.70900000  1.0
  C  C58  1  0.19480000  0.35600000  0.62370000  1.0
  C  C59  1  0.17600000  0.38930000  0.42510000  1.0
  C  C60  1  0.22660000  0.40490000  0.31560000  1.0
  C  C61  1  0.29790000  0.38820000  0.39930000  1.0
  C  C62  1  0.39300000  0.33500000  0.68930000  1.0
  C  C63  1  0.10120000  0.40850000  0.33130000  1.0
  C  C64  1  0.18180000  0.60630000  0.91250000  1.0
  C  C65  1  0.22920000  0.60450000  0.78860000  1.0
  C  C66  1  0.30030000  0.62010000  0.86630000  1.0
  C  C67  1  0.32510000  0.63820000  0.07340000  1.0
  C  C68  1  0.27850000  0.64000000  0.19620000  1.0
  C  C69  1  0.20750000  0.62450000  0.11900000  1.0
  C  C70  1  0.10610000  0.58780000  0.82410000  1.0
  C  C71  1  0.39960000  0.65730000  0.16650000  1.0
  C  C72  1  0.68250000  0.85480000  0.90110000  1.0
  C  C73  1  0.73390000  0.83900000  0.79100000  1.0
  C  C74  1  0.80520000  0.85600000  0.87630000  1.0
  C  C75  1  0.82400000  0.88930000  0.07490000  1.0
  C  C76  1  0.77340000  0.90490000  0.18440000  1.0
  C  C77  1  0.70210000  0.88820000  0.10070000  1.0
  C  C78  1  0.60700000  0.83500000  0.81070000  1.0
  C  C79  1  0.89880000  0.90850000  0.16870000  1.0
  C  C80  1  0.18180000  0.89370000  0.41250000  1.0
  C  C81  1  0.22920000  0.89550000  0.28860000  1.0
  C  C82  1  0.30030000  0.87990000  0.36630000  1.0
  C  C83  1  0.32510000  0.86180000  0.57340000  1.0
  C  C84  1  0.27850000  0.86000000  0.69620000  1.0
  C  C85  1  0.20750000  0.87550000  0.61900000  1.0
  C  C86  1  0.10610000  0.91220000  0.32410000  1.0
  C  C87  1  0.39960000  0.84270000  0.66650000  1.0
  C  C88  1  0.68250000  0.64520000  0.40110000  1.0
  C  C89  1  0.73390000  0.66100000  0.29100000  1.0
  C  C90  1  0.80520000  0.64400000  0.37630000  1.0
  C  C91  1  0.82400000  0.61070000  0.57490000  1.0
  C  C92  1  0.77340000  0.59510000  0.68440000  1.0
  C  C93  1  0.70210000  0.61180000  0.60070000  1.0
  C  C94  1  0.60700000  0.66500000  0.31070000  1.0
  C  C95  1  0.89880000  0.59150000  0.66870000  1.0
  C  C96  1  0.81820000  0.39370000  0.08750000  1.0
  C  C97  1  0.77080000  0.39550000  0.21140000  1.0
  C  C98  1  0.69970000  0.37990000  0.13370000  1.0
  C  C99  1  0.67490000  0.36180000  0.92660000  1.0
  C  C100  1  0.72150000  0.36000000  0.80380000  1.0
  C  C101  1  0.79250000  0.37550000  0.88100000  1.0
  C  C102  1  0.89390000  0.41220000  0.17590000  1.0
  C  C103  1  0.60040000  0.34270000  0.83350000  1.0
  C  C104  1  0.31750000  0.14520000  0.09890000  1.0
  C  C105  1  0.26610000  0.16100000  0.20900000  1.0
  C  C106  1  0.19480000  0.14400000  0.12370000  1.0
  C  C107  1  0.17600000  0.11070000  0.92510000  1.0
  C  C108  1  0.22660000  0.09510000  0.81560000  1.0
  C  C109  1  0.29790000  0.11180000  0.89930000  1.0
  C  C110  1  0.39300000  0.16500000  0.18930000  1.0
  C  C111  1  0.10120000  0.09150000  0.83130000  1.0
  O  O112  1  0.49960000  0.31470000  0.25810000  1.0
  O  O113  1  0.00090000  0.55530000  0.25180000  1.0
  O  O114  1  0.91570000  0.07770000  0.86910000  1.0
  O  O115  1  0.93180000  0.08210000  0.54930000  1.0
  O  O116  1  0.55590000  0.14850000  0.44290000  1.0
  O  O117  1  0.58670000  0.18360000  0.14700000  1.0
  O  O118  1  0.40800000  0.30030000  0.87120000  1.0
  O  O119  1  0.43570000  0.35180000  0.57560000  1.0
  O  O120  1  0.05680000  0.39930000  0.44480000  1.0
  O  O121  1  0.08850000  0.43140000  0.14050000  1.0
  O  O122  1  0.50040000  0.81470000  0.24190000  1.0
  O  O123  1  0.99910000  0.05530000  0.24820000  1.0
  O  O124  1  0.08430000  0.57770000  0.63090000  1.0
  O  O125  1  0.06820000  0.58210000  0.95070000  1.0
  O  O126  1  0.44410000  0.64850000  0.05710000  1.0
  O  O127  1  0.41330000  0.68360000  0.35300000  1.0
  O  O128  1  0.59200000  0.80030000  0.62880000  1.0
  O  O129  1  0.56430000  0.85180000  0.92440000  1.0
  O  O130  1  0.94320000  0.89930000  0.05520000  1.0
  O  O131  1  0.91150000  0.93140000  0.35950000  1.0
  O  O132  1  0.50040000  0.68530000  0.74190000  1.0
  O  O133  1  0.99910000  0.44470000  0.74820000  1.0
  O  O134  1  0.08430000  0.92230000  0.13090000  1.0
  O  O135  1  0.06820000  0.91790000  0.45070000  1.0
  O  O136  1  0.44410000  0.85150000  0.55710000  1.0
  O  O137  1  0.41330000  0.81640000  0.85300000  1.0
  O  O138  1  0.59200000  0.69970000  0.12880000  1.0
  O  O139  1  0.56430000  0.64820000  0.42440000  1.0
  O  O140  1  0.94320000  0.60070000  0.55520000  1.0
  O  O141  1  0.91150000  0.56860000  0.85950000  1.0
  O  O142  1  0.49960000  0.18530000  0.75810000  1.0
  O  O143  1  0.00090000  0.94470000  0.75180000  1.0
  O  O144  1  0.91570000  0.42230000  0.36910000  1.0
  O  O145  1  0.93180000  0.41790000  0.04930000  1.0
  O  O146  1  0.55590000  0.35150000  0.94290000  1.0
  O  O147  1  0.58670000  0.31640000  0.64700000  1.0
  O  O148  1  0.40800000  0.19970000  0.37120000  1.0
  O  O149  1  0.43570000  0.14820000  0.07560000  1.0
  O  O150  1  0.05680000  0.10070000  0.94480000  1.0
  O  O151  1  0.08850000  0.06860000  0.64050000  1.0
