# generated using pymatgen
data_LaP3H21C9(NO3)3
_symmetry_space_group_name_H-M   'P 1'
_cell_length_a   6.03940000
_cell_length_b   26.52400000
_cell_length_c   23.43100000
_cell_angle_alpha   90.00000000
_cell_angle_beta   93.71000000
_cell_angle_gamma   90.00000000
_symmetry_Int_Tables_number   1
_chemical_formula_structural   LaP3H21C9(NO3)3
_chemical_formula_sum   'La8 P24 H168 C72 N24 O72'
_cell_volume   3745.52369938
_cell_formula_units_Z   8
loop_
 _symmetry_equiv_pos_site_id
 _symmetry_equiv_pos_as_xyz
  1  'x, y, z'
loop_
 _atom_site_type_symbol
 _atom_site_label
 _atom_site_symmetry_multiplicity
 _atom_site_fract_x
 _atom_site_fract_y
 _atom_site_fract_z
 _atom_site_occupancy
  La  La0  1  0.75400000  0.80541000  0.94478000  1.0
  La  La1  1  0.74680000  0.77503000  0.55484000  1.0
  La  La2  1  0.25400000  0.30541000  0.94478000  1.0
  La  La3  1  0.24680000  0.27503000  0.55484000  1.0
  La  La4  1  0.75400000  0.19459000  0.44478000  1.0
  La  La5  1  0.74680000  0.22497000  0.05484000  1.0
  La  La6  1  0.25400000  0.69459000  0.44478000  1.0
  La  La7  1  0.24680000  0.72497000  0.05484000  1.0
  P  P8  1  0.88550000  0.89890000  0.62440000  1.0
  P  P9  1  0.26080000  0.86030000  0.02230000  1.0
  P  P10  1  0.78500000  0.76698000  0.10700000  1.0
  P  P11  1  0.23150000  0.17240000  0.98190000  1.0
  P  P12  1  0.71570000  0.73626000  0.39320000  1.0
  P  P13  1  0.60420000  0.93250000  0.88430000  1.0
  P  P14  1  0.38550000  0.39890000  0.62440000  1.0
  P  P15  1  0.76080000  0.36030000  0.02230000  1.0
  P  P16  1  0.28500000  0.26698000  0.10700000  1.0
  P  P17  1  0.73150000  0.67240000  0.98190000  1.0
  P  P18  1  0.21570000  0.23626000  0.39320000  1.0
  P  P19  1  0.10420000  0.43250000  0.88430000  1.0
  P  P20  1  0.88550000  0.10110000  0.12440000  1.0
  P  P21  1  0.26080000  0.13970000  0.52230000  1.0
  P  P22  1  0.78500000  0.23302000  0.60700000  1.0
  P  P23  1  0.23150000  0.82760000  0.48190000  1.0
  P  P24  1  0.71570000  0.26374000  0.89320000  1.0
  P  P25  1  0.60420000  0.06750000  0.38430000  1.0
  P  P26  1  0.38550000  0.60110000  0.12440000  1.0
  P  P27  1  0.76080000  0.63970000  0.52230000  1.0
  P  P28  1  0.28500000  0.73302000  0.60700000  1.0
  P  P29  1  0.73150000  0.32760000  0.48190000  1.0
  P  P30  1  0.21570000  0.76374000  0.89320000  1.0
  P  P31  1  0.10420000  0.56750000  0.38430000  1.0
  H  H32  1  0.22970000  0.91550000  0.67120000  1.0
  H  H33  1  0.25930000  0.87920000  0.61950000  1.0
  H  H34  1  0.45600000  0.80590000  0.73880000  1.0
  H  H35  1  0.53290000  0.84270000  0.69150000  1.0
  H  H36  1  0.44590000  0.91240000  0.74690000  1.0
  H  H37  1  0.61400000  0.87780000  0.78260000  1.0
  H  H38  1  0.97000000  0.87010000  0.81490000  1.0
  H  H39  1  0.03860000  0.90850000  0.76830000  1.0
  H  H40  1  0.88640000  0.83720000  0.72270000  1.0
  H  H41  1  0.05570000  0.80220000  0.75730000  1.0
  H  H42  1  0.14200000  0.92410000  0.08390000  1.0
  H  H43  1  0.40190000  0.92050000  0.08970000  1.0
  H  H44  1  0.53270000  0.00280000  0.07090000  1.0
  H  H45  1  0.29340000  0.02030000  0.08440000  1.0
  H  H46  1  0.46790000  0.08460000  0.03290000  1.0
  H  H47  1  0.50060000  0.04680000  0.98250000  1.0
  H  H48  1  0.93100000  0.02990000  0.93880000  1.0
  H  H49  1  0.16980000  0.01310000  0.92390000  1.0
  H  H50  1  0.96750000  0.98640000  0.02490000  1.0
  H  H51  1  0.00720000  0.94910000  0.97460000  1.0
  H  H52  1  0.89880000  0.84970000  0.11780000  1.0
  H  H53  1  0.64010000  0.84720000  0.11150000  1.0
  H  H54  1  0.55750000  0.78550000  0.20720000  1.0
  H  H55  1  0.43600000  0.83670000  0.19370000  1.0
  H  H56  1  0.54670000  0.86670000  0.29160000  1.0
  H  H57  1  0.40840000  0.81640000  0.29570000  1.0
  H  H58  1  0.06750000  0.81210000  0.31120000  1.0
  H  H59  1  0.94510000  0.86450000  0.30550000  1.0
  H  H60  1  0.07090000  0.84700000  0.21680000  1.0
  H  H61  1  0.97900000  0.79210000  0.21790000  1.0
  H  H62  1  0.05240000  0.11270000  0.91980000  1.0
  H  H63  1  0.31060000  0.10560000  0.91950000  1.0
  H  H64  1  0.84230000  0.81780000  0.39020000  1.0
  H  H65  1  0.58300000  0.81690000  0.38100000  1.0
  H  H66  1  0.21950000  0.90960000  0.88520000  1.0
  H  H67  1  0.24840000  0.94840000  0.83580000  1.0
  H  H68  1  0.17660000  0.81160000  0.67190000  1.0
  H  H69  1  0.32890000  0.84590000  0.82990000  1.0
  H  H70  1  0.37950000  0.95650000  0.99490000  1.0
  H  H71  1  0.08960000  0.07810000  0.01480000  1.0
  H  H72  1  0.75230000  0.87560000  0.19730000  1.0
  H  H73  1  0.73530000  0.77420000  0.29240000  1.0
  H  H74  1  0.72970000  0.41550000  0.67120000  1.0
  H  H75  1  0.75930000  0.37920000  0.61950000  1.0
  H  H76  1  0.95600000  0.30590000  0.73880000  1.0
  H  H77  1  0.03290000  0.34270000  0.69150000  1.0
  H  H78  1  0.94590000  0.41240000  0.74690000  1.0
  H  H79  1  0.11400000  0.37780000  0.78260000  1.0
  H  H80  1  0.47000000  0.37010000  0.81490000  1.0
  H  H81  1  0.53860000  0.40850000  0.76830000  1.0
  H  H82  1  0.38640000  0.33720000  0.72270000  1.0
  H  H83  1  0.55570000  0.30220000  0.75730000  1.0
  H  H84  1  0.64200000  0.42410000  0.08390000  1.0
  H  H85  1  0.90190000  0.42050000  0.08970000  1.0
  H  H86  1  0.03270000  0.50280000  0.07090000  1.0
  H  H87  1  0.79340000  0.52030000  0.08440000  1.0
  H  H88  1  0.96790000  0.58460000  0.03290000  1.0
  H  H89  1  0.00060000  0.54680000  0.98250000  1.0
  H  H90  1  0.43100000  0.52990000  0.93880000  1.0
  H  H91  1  0.66980000  0.51310000  0.92390000  1.0
  H  H92  1  0.46750000  0.48640000  0.02490000  1.0
  H  H93  1  0.50720000  0.44910000  0.97460000  1.0
  H  H94  1  0.39880000  0.34970000  0.11780000  1.0
  H  H95  1  0.14010000  0.34720000  0.11150000  1.0
  H  H96  1  0.05750000  0.28550000  0.20720000  1.0
  H  H97  1  0.93600000  0.33670000  0.19370000  1.0
  H  H98  1  0.04670000  0.36670000  0.29160000  1.0
  H  H99  1  0.90840000  0.31640000  0.29570000  1.0
  H  H100  1  0.56750000  0.31210000  0.31120000  1.0
  H  H101  1  0.44510000  0.36450000  0.30550000  1.0
  H  H102  1  0.57090000  0.34700000  0.21680000  1.0
  H  H103  1  0.47900000  0.29210000  0.21790000  1.0
  H  H104  1  0.55240000  0.61270000  0.91980000  1.0
  H  H105  1  0.81060000  0.60560000  0.91950000  1.0
  H  H106  1  0.34230000  0.31780000  0.39020000  1.0
  H  H107  1  0.08300000  0.31690000  0.38100000  1.0
  H  H108  1  0.71950000  0.40960000  0.88520000  1.0
  H  H109  1  0.74840000  0.44840000  0.83580000  1.0
  H  H110  1  0.67660000  0.31160000  0.67190000  1.0
  H  H111  1  0.82890000  0.34590000  0.82990000  1.0
  H  H112  1  0.87950000  0.45650000  0.99490000  1.0
  H  H113  1  0.58960000  0.57810000  0.01480000  1.0
  H  H114  1  0.25230000  0.37560000  0.19730000  1.0
  H  H115  1  0.23530000  0.27420000  0.29240000  1.0
  H  H116  1  0.22970000  0.08450000  0.17120000  1.0
  H  H117  1  0.25930000  0.12080000  0.11950000  1.0
  H  H118  1  0.45600000  0.19410000  0.23880000  1.0
  H  H119  1  0.53290000  0.15730000  0.19150000  1.0
  H  H120  1  0.44590000  0.08760000  0.24690000  1.0
  H  H121  1  0.61400000  0.12220000  0.28260000  1.0
  H  H122  1  0.97000000  0.12990000  0.31490000  1.0
  H  H123  1  0.03860000  0.09150000  0.26830000  1.0
  H  H124  1  0.88640000  0.16280000  0.22270000  1.0
  H  H125  1  0.05570000  0.19780000  0.25730000  1.0
  H  H126  1  0.14200000  0.07590000  0.58390000  1.0
  H  H127  1  0.40190000  0.07950000  0.58970000  1.0
  H  H128  1  0.53270000  0.99720000  0.57090000  1.0
  H  H129  1  0.29340000  0.97970000  0.58440000  1.0
  H  H130  1  0.46790000  0.91540000  0.53290000  1.0
  H  H131  1  0.50060000  0.95320000  0.48250000  1.0
  H  H132  1  0.93100000  0.97010000  0.43880000  1.0
  H  H133  1  0.16980000  0.98690000  0.42390000  1.0
  H  H134  1  0.96750000  0.01360000  0.52490000  1.0
  H  H135  1  0.00720000  0.05090000  0.47460000  1.0
  H  H136  1  0.89880000  0.15030000  0.61780000  1.0
  H  H137  1  0.64010000  0.15280000  0.61150000  1.0
  H  H138  1  0.55750000  0.21450000  0.70720000  1.0
  H  H139  1  0.43600000  0.16330000  0.69370000  1.0
  H  H140  1  0.54670000  0.13330000  0.79160000  1.0
  H  H141  1  0.40840000  0.18360000  0.79570000  1.0
  H  H142  1  0.06750000  0.18790000  0.81120000  1.0
  H  H143  1  0.94510000  0.13550000  0.80550000  1.0
  H  H144  1  0.07090000  0.15300000  0.71680000  1.0
  H  H145  1  0.97900000  0.20790000  0.71790000  1.0
  H  H146  1  0.05240000  0.88730000  0.41980000  1.0
  H  H147  1  0.31060000  0.89440000  0.41950000  1.0
  H  H148  1  0.84230000  0.18220000  0.89020000  1.0
  H  H149  1  0.58300000  0.18310000  0.88100000  1.0
  H  H150  1  0.21950000  0.09040000  0.38520000  1.0
  H  H151  1  0.24840000  0.05160000  0.33580000  1.0
  H  H152  1  0.17660000  0.18840000  0.17190000  1.0
  H  H153  1  0.32890000  0.15410000  0.32990000  1.0
  H  H154  1  0.37950000  0.04350000  0.49490000  1.0
  H  H155  1  0.08960000  0.92190000  0.51480000  1.0
  H  H156  1  0.75230000  0.12440000  0.69730000  1.0
  H  H157  1  0.73530000  0.22580000  0.79240000  1.0
  H  H158  1  0.72970000  0.58450000  0.17120000  1.0
  H  H159  1  0.75930000  0.62080000  0.11950000  1.0
  H  H160  1  0.95600000  0.69410000  0.23880000  1.0
  H  H161  1  0.03290000  0.65730000  0.19150000  1.0
  H  H162  1  0.94590000  0.58760000  0.24690000  1.0
  H  H163  1  0.11400000  0.62220000  0.28260000  1.0
  H  H164  1  0.47000000  0.62990000  0.31490000  1.0
  H  H165  1  0.53860000  0.59150000  0.26830000  1.0
  H  H166  1  0.38640000  0.66280000  0.22270000  1.0
  H  H167  1  0.55570000  0.69780000  0.25730000  1.0
  H  H168  1  0.64200000  0.57590000  0.58390000  1.0
  H  H169  1  0.90190000  0.57950000  0.58970000  1.0
  H  H170  1  0.03270000  0.49720000  0.57090000  1.0
  H  H171  1  0.79340000  0.47970000  0.58440000  1.0
  H  H172  1  0.96790000  0.41540000  0.53290000  1.0
  H  H173  1  0.00060000  0.45320000  0.48250000  1.0
  H  H174  1  0.43100000  0.47010000  0.43880000  1.0
  H  H175  1  0.66980000  0.48690000  0.42390000  1.0
  H  H176  1  0.46750000  0.51360000  0.52490000  1.0
  H  H177  1  0.50720000  0.55090000  0.47460000  1.0
  H  H178  1  0.39880000  0.65030000  0.61780000  1.0
  H  H179  1  0.14010000  0.65280000  0.61150000  1.0
  H  H180  1  0.05750000  0.71450000  0.70720000  1.0
  H  H181  1  0.93600000  0.66330000  0.69370000  1.0
  H  H182  1  0.04670000  0.63330000  0.79160000  1.0
  H  H183  1  0.90840000  0.68360000  0.79570000  1.0
  H  H184  1  0.56750000  0.68790000  0.81120000  1.0
  H  H185  1  0.44510000  0.63550000  0.80550000  1.0
  H  H186  1  0.57090000  0.65300000  0.71680000  1.0
  H  H187  1  0.47900000  0.70790000  0.71790000  1.0
  H  H188  1  0.55240000  0.38730000  0.41980000  1.0
  H  H189  1  0.81060000  0.39440000  0.41950000  1.0
  H  H190  1  0.34230000  0.68220000  0.89020000  1.0
  H  H191  1  0.08300000  0.68310000  0.88100000  1.0
  H  H192  1  0.71950000  0.59040000  0.38520000  1.0
  H  H193  1  0.74840000  0.55160000  0.33580000  1.0
  H  H194  1  0.67660000  0.68840000  0.17190000  1.0
  H  H195  1  0.82890000  0.65410000  0.32990000  1.0
  H  H196  1  0.87950000  0.54350000  0.49490000  1.0
  H  H197  1  0.58960000  0.42190000  0.51480000  1.0
  H  H198  1  0.25230000  0.62440000  0.69730000  1.0
  H  H199  1  0.23530000  0.72580000  0.79240000  1.0
  C  C200  1  0.17000000  0.88570000  0.65170000  1.0
  C  C201  1  0.42800000  0.83840000  0.72090000  1.0
  C  C202  1  0.46400000  0.87980000  0.76540000  1.0
  C  C203  1  0.07200000  0.87570000  0.78520000  1.0
  C  C204  1  0.03700000  0.83510000  0.73950000  1.0
  C  C205  1  0.27400000  0.92080000  0.06250000  1.0
  C  C206  1  0.38600000  0.01100000  0.05390000  1.0
  C  C207  1  0.40400000  0.05570000  0.01250000  1.0
  C  C208  1  0.07900000  0.02210000  0.95500000  1.0
  C  C209  1  0.06700000  0.97820000  0.99540000  1.0
  C  C210  1  0.77100000  0.83200000  0.13080000  1.0
  C  C211  1  0.56300000  0.82150000  0.21460000  1.0
  C  C212  1  0.54300000  0.83100000  0.28260000  1.0
  C  C213  1  0.94100000  0.82970000  0.29290000  1.0
  C  C214  1  0.94700000  0.82680000  0.22760000  1.0
  C  C215  1  0.18900000  0.11150000  0.94380000  1.0
  C  C216  1  0.71800000  0.80060000  0.37040000  1.0
  C  C217  1  0.31100000  0.91840000  0.85410000  1.0
  C  C218  1  0.67000000  0.38570000  0.65170000  1.0
  C  C219  1  0.92800000  0.33840000  0.72090000  1.0
  C  C220  1  0.96400000  0.37980000  0.76540000  1.0
  C  C221  1  0.57200000  0.37570000  0.78520000  1.0
  C  C222  1  0.53700000  0.33510000  0.73950000  1.0
  C  C223  1  0.77400000  0.42080000  0.06250000  1.0
  C  C224  1  0.88600000  0.51100000  0.05390000  1.0
  C  C225  1  0.90400000  0.55570000  0.01250000  1.0
  C  C226  1  0.57900000  0.52210000  0.95500000  1.0
  C  C227  1  0.56700000  0.47820000  0.99540000  1.0
  C  C228  1  0.27100000  0.33200000  0.13080000  1.0
  C  C229  1  0.06300000  0.32150000  0.21460000  1.0
  C  C230  1  0.04300000  0.33100000  0.28260000  1.0
  C  C231  1  0.44100000  0.32970000  0.29290000  1.0
  C  C232  1  0.44700000  0.32680000  0.22760000  1.0
  C  C233  1  0.68900000  0.61150000  0.94380000  1.0
  C  C234  1  0.21800000  0.30060000  0.37040000  1.0
  C  C235  1  0.81100000  0.41840000  0.85410000  1.0
  C  C236  1  0.17000000  0.11430000  0.15170000  1.0
  C  C237  1  0.42800000  0.16160000  0.22090000  1.0
  C  C238  1  0.46400000  0.12020000  0.26540000  1.0
  C  C239  1  0.07200000  0.12430000  0.28520000  1.0
  C  C240  1  0.03700000  0.16490000  0.23950000  1.0
  C  C241  1  0.27400000  0.07920000  0.56250000  1.0
  C  C242  1  0.38600000  0.98900000  0.55390000  1.0
  C  C243  1  0.40400000  0.94430000  0.51250000  1.0
  C  C244  1  0.07900000  0.97790000  0.45500000  1.0
  C  C245  1  0.06700000  0.02180000  0.49540000  1.0
  C  C246  1  0.77100000  0.16800000  0.63080000  1.0
  C  C247  1  0.56300000  0.17850000  0.71460000  1.0
  C  C248  1  0.54300000  0.16900000  0.78260000  1.0
  C  C249  1  0.94100000  0.17030000  0.79290000  1.0
  C  C250  1  0.94700000  0.17320000  0.72760000  1.0
  C  C251  1  0.18900000  0.88850000  0.44380000  1.0
  C  C252  1  0.71800000  0.19940000  0.87040000  1.0
  C  C253  1  0.31100000  0.08160000  0.35410000  1.0
  C  C254  1  0.67000000  0.61430000  0.15170000  1.0
  C  C255  1  0.92800000  0.66160000  0.22090000  1.0
  C  C256  1  0.96400000  0.62020000  0.26540000  1.0
  C  C257  1  0.57200000  0.62430000  0.28520000  1.0
  C  C258  1  0.53700000  0.66490000  0.23950000  1.0
  C  C259  1  0.77400000  0.57920000  0.56250000  1.0
  C  C260  1  0.88600000  0.48900000  0.55390000  1.0
  C  C261  1  0.90400000  0.44430000  0.51250000  1.0
  C  C262  1  0.57900000  0.47790000  0.45500000  1.0
  C  C263  1  0.56700000  0.52180000  0.49540000  1.0
  C  C264  1  0.27100000  0.66800000  0.63080000  1.0
  C  C265  1  0.06300000  0.67850000  0.71460000  1.0
  C  C266  1  0.04300000  0.66900000  0.78260000  1.0
  C  C267  1  0.44100000  0.67030000  0.79290000  1.0
  C  C268  1  0.44700000  0.67320000  0.72760000  1.0
  C  C269  1  0.68900000  0.38850000  0.44380000  1.0
  C  C270  1  0.21800000  0.69940000  0.87040000  1.0
  C  C271  1  0.81100000  0.58160000  0.35410000  1.0
  N  N272  1  0.19400000  0.83990000  0.69380000  1.0
  N  N273  1  0.30400000  0.87550000  0.81090000  1.0
  N  N274  1  0.28900000  0.96510000  0.02280000  1.0
  N  N275  1  0.17800000  0.06890000  0.98660000  1.0
  N  N276  1  0.76200000  0.84160000  0.19340000  1.0
  N  N277  1  0.73600000  0.80590000  0.30730000  1.0
  N  N278  1  0.69400000  0.33990000  0.69380000  1.0
  N  N279  1  0.80400000  0.37550000  0.81090000  1.0
  N  N280  1  0.78900000  0.46510000  0.02280000  1.0
  N  N281  1  0.67800000  0.56890000  0.98660000  1.0
  N  N282  1  0.26200000  0.34160000  0.19340000  1.0
  N  N283  1  0.23600000  0.30590000  0.30730000  1.0
  N  N284  1  0.19400000  0.16010000  0.19380000  1.0
  N  N285  1  0.30400000  0.12450000  0.31090000  1.0
  N  N286  1  0.28900000  0.03490000  0.52280000  1.0
  N  N287  1  0.17800000  0.93110000  0.48660000  1.0
  N  N288  1  0.76200000  0.15840000  0.69340000  1.0
  N  N289  1  0.73600000  0.19410000  0.80730000  1.0
  N  N290  1  0.69400000  0.66010000  0.19380000  1.0
  N  N291  1  0.80400000  0.62450000  0.31090000  1.0
  N  N292  1  0.78900000  0.53490000  0.52280000  1.0
  N  N293  1  0.67800000  0.43110000  0.48660000  1.0
  N  N294  1  0.26200000  0.65840000  0.69340000  1.0
  N  N295  1  0.23600000  0.69410000  0.80730000  1.0
  O  O296  1  0.76000000  0.85110000  0.61810000  1.0
  O  O297  1  0.91800000  0.93390000  0.57480000  1.0
  O  O298  1  0.77400000  0.92790000  0.67390000  1.0
  O  O299  1  0.03600000  0.86330000  0.98430000  1.0
  O  O300  1  0.27100000  0.81880000  0.06760000  1.0
  O  O301  1  0.47300000  0.86200000  0.98790000  1.0
  O  O302  1  0.57600000  0.74060000  0.12580000  1.0
  O  O303  1  0.99400000  0.74280000  0.13280000  1.0
  O  O304  1  0.78300000  0.77430000  0.04390000  1.0
  O  O305  1  0.45900000  0.16940000  0.01680000  1.0
  O  O306  1  0.03700000  0.17170000  0.01910000  1.0
  O  O307  1  0.22000000  0.21140000  0.93600000  1.0
  O  O308  1  0.91900000  0.70880000  0.37300000  1.0
  O  O309  1  0.49600000  0.71150000  0.36860000  1.0
  O  O310  1  0.71200000  0.73740000  0.46010000  1.0
  O  O311  1  0.70000000  0.96740000  0.84140000  1.0
  O  O312  1  0.57700000  0.96000000  0.93790000  1.0
  O  O313  1  0.72300000  0.88400000  0.88770000  1.0
  O  O314  1  0.26000000  0.35110000  0.61810000  1.0
  O  O315  1  0.41800000  0.43390000  0.57480000  1.0
  O  O316  1  0.27400000  0.42790000  0.67390000  1.0
  O  O317  1  0.53600000  0.36330000  0.98430000  1.0
  O  O318  1  0.77100000  0.31880000  0.06760000  1.0
  O  O319  1  0.97300000  0.36200000  0.98790000  1.0
  O  O320  1  0.07600000  0.24060000  0.12580000  1.0
  O  O321  1  0.49400000  0.24280000  0.13280000  1.0
  O  O322  1  0.28300000  0.27430000  0.04390000  1.0
  O  O323  1  0.95900000  0.66940000  0.01680000  1.0
  O  O324  1  0.53700000  0.67170000  0.01910000  1.0
  O  O325  1  0.72000000  0.71140000  0.93600000  1.0
  O  O326  1  0.41900000  0.20880000  0.37300000  1.0
  O  O327  1  0.99600000  0.21150000  0.36860000  1.0
  O  O328  1  0.21200000  0.23740000  0.46010000  1.0
  O  O329  1  0.20000000  0.46740000  0.84140000  1.0
  O  O330  1  0.07700000  0.46000000  0.93790000  1.0
  O  O331  1  0.22300000  0.38400000  0.88770000  1.0
  O  O332  1  0.76000000  0.14890000  0.11810000  1.0
  O  O333  1  0.91800000  0.06610000  0.07480000  1.0
  O  O334  1  0.77400000  0.07210000  0.17390000  1.0
  O  O335  1  0.03600000  0.13670000  0.48430000  1.0
  O  O336  1  0.27100000  0.18120000  0.56760000  1.0
  O  O337  1  0.47300000  0.13800000  0.48790000  1.0
  O  O338  1  0.57600000  0.25940000  0.62580000  1.0
  O  O339  1  0.99400000  0.25720000  0.63280000  1.0
  O  O340  1  0.78300000  0.22570000  0.54390000  1.0
  O  O341  1  0.45900000  0.83060000  0.51680000  1.0
  O  O342  1  0.03700000  0.82830000  0.51910000  1.0
  O  O343  1  0.22000000  0.78860000  0.43600000  1.0
  O  O344  1  0.91900000  0.29120000  0.87300000  1.0
  O  O345  1  0.49600000  0.28850000  0.86860000  1.0
  O  O346  1  0.71200000  0.26260000  0.96010000  1.0
  O  O347  1  0.70000000  0.03260000  0.34140000  1.0
  O  O348  1  0.57700000  0.04000000  0.43790000  1.0
  O  O349  1  0.72300000  0.11600000  0.38770000  1.0
  O  O350  1  0.26000000  0.64890000  0.11810000  1.0
  O  O351  1  0.41800000  0.56610000  0.07480000  1.0
  O  O352  1  0.27400000  0.57210000  0.17390000  1.0
  O  O353  1  0.53600000  0.63670000  0.48430000  1.0
  O  O354  1  0.77100000  0.68120000  0.56760000  1.0
  O  O355  1  0.97300000  0.63800000  0.48790000  1.0
  O  O356  1  0.07600000  0.75940000  0.62580000  1.0
  O  O357  1  0.49400000  0.75720000  0.63280000  1.0
  O  O358  1  0.28300000  0.72570000  0.54390000  1.0
  O  O359  1  0.95900000  0.33060000  0.51680000  1.0
  O  O360  1  0.53700000  0.32830000  0.51910000  1.0
  O  O361  1  0.72000000  0.28860000  0.43600000  1.0
  O  O362  1  0.41900000  0.79120000  0.87300000  1.0
  O  O363  1  0.99600000  0.78850000  0.86860000  1.0
  O  O364  1  0.21200000  0.76260000  0.96010000  1.0
  O  O365  1  0.20000000  0.53260000  0.34140000  1.0
  O  O366  1  0.07700000  0.54000000  0.43790000  1.0
  O  O367  1  0.22300000  0.61600000  0.38770000  1.0
