# generated using pymatgen
data_Mn2H4WC12(N5O)2
_symmetry_space_group_name_H-M   'P 1'
_cell_length_a   11.34160000
_cell_length_b   14.74040000
_cell_length_c   15.19790000
_cell_angle_alpha   90.00000000
_cell_angle_beta   90.00000000
_cell_angle_gamma   90.00000000
_symmetry_Int_Tables_number   1
_chemical_formula_structural   Mn2H4WC12(N5O)2
_chemical_formula_sum   'Mn8 H16 W4 C48 N40 O8'
_cell_volume   2540.78067631
_cell_formula_units_Z   4
loop_
 _symmetry_equiv_pos_site_id
 _symmetry_equiv_pos_as_xyz
  1  'x, y, z'
loop_
 _atom_site_type_symbol
 _atom_site_label
 _atom_site_symmetry_multiplicity
 _atom_site_fract_x
 _atom_site_fract_y
 _atom_site_fract_z
 _atom_site_occupancy
  Mn  Mn0  1  0.19392000  0.69358000  0.52249000  1.0
  Mn  Mn1  1  0.69392000  0.80642000  0.52249000  1.0
  Mn  Mn2  1  0.69392000  0.80642000  0.97751000  1.0
  Mn  Mn3  1  0.30608000  0.19358000  0.02249000  1.0
  Mn  Mn4  1  0.80608000  0.30642000  0.47751000  1.0
  Mn  Mn5  1  0.19392000  0.69358000  0.97751000  1.0
  Mn  Mn6  1  0.30608000  0.19358000  0.47751000  1.0
  Mn  Mn7  1  0.80608000  0.30642000  0.02249000  1.0
  H  H8  1  0.24860000  0.00270000  0.17400000  1.0
  H  H9  1  0.48090000  0.70420000  0.82560000  1.0
  H  H10  1  0.98090000  0.79580000  0.82560000  1.0
  H  H11  1  0.48090000  0.70420000  0.67440000  1.0
  H  H12  1  0.24860000  0.00270000  0.32600000  1.0
  H  H13  1  0.75140000  0.99730000  0.82600000  1.0
  H  H14  1  0.74860000  0.49730000  0.32600000  1.0
  H  H15  1  0.51910000  0.29580000  0.32560000  1.0
  H  H16  1  0.74860000  0.49730000  0.17400000  1.0
  H  H17  1  0.25140000  0.50270000  0.67400000  1.0
  H  H18  1  0.98090000  0.79580000  0.67440000  1.0
  H  H19  1  0.01910000  0.20420000  0.32560000  1.0
  H  H20  1  0.51910000  0.29580000  0.17440000  1.0
  H  H21  1  0.75140000  0.99730000  0.67400000  1.0
  H  H22  1  0.01910000  0.20420000  0.17440000  1.0
  H  H23  1  0.25140000  0.50270000  0.82600000  1.0
  W  W24  1  0.63272000  0.04700000  0.25000000  1.0
  W  W25  1  0.36728000  0.95300000  0.75000000  1.0
  W  W26  1  0.86728000  0.54700000  0.75000000  1.0
  W  W27  1  0.13272000  0.45300000  0.25000000  1.0
  C  C28  1  0.71470000  0.14557000  0.16404000  1.0
  C  C29  1  0.28530000  0.85443000  0.83596000  1.0
  C  C30  1  0.21470000  0.35443000  0.33596000  1.0
  C  C31  1  0.00100000  0.39594000  0.16360000  1.0
  C  C32  1  0.34360000  0.04080000  0.86196000  1.0
  C  C33  1  0.20480000  0.04571000  0.20470000  1.0
  C  C34  1  0.43130000  0.66517000  0.70502000  1.0
  C  C35  1  0.79520000  0.95429000  0.79530000  1.0
  C  C36  1  0.50100000  0.10406000  0.33640000  1.0
  C  C37  1  0.93130000  0.83483000  0.70502000  1.0
  C  C38  1  0.78530000  0.64557000  0.66404000  1.0
  C  C39  1  0.49900000  0.89594000  0.83640000  1.0
  C  C40  1  0.15640000  0.54080000  0.13804000  1.0
  C  C41  1  0.68340000  0.50590000  0.75000000  1.0
  C  C42  1  0.84360000  0.45920000  0.86196000  1.0
  C  C43  1  0.56870000  0.33483000  0.29498000  1.0
  C  C44  1  0.50810000  0.05220000  0.75000000  1.0
  C  C45  1  0.65640000  0.95920000  0.13804000  1.0
  C  C46  1  0.29520000  0.54571000  0.70470000  1.0
  C  C47  1  0.79520000  0.95429000  0.70470000  1.0
  C  C48  1  0.71470000  0.14557000  0.33596000  1.0
  C  C49  1  0.06870000  0.16517000  0.29498000  1.0
  C  C50  1  0.56870000  0.33483000  0.20502000  1.0
  C  C51  1  0.81660000  0.00590000  0.25000000  1.0
  C  C52  1  0.99190000  0.55220000  0.25000000  1.0
  C  C53  1  0.93130000  0.83483000  0.79498000  1.0
  C  C54  1  0.28530000  0.85443000  0.66404000  1.0
  C  C55  1  0.49900000  0.89594000  0.66360000  1.0
  C  C56  1  0.50100000  0.10406000  0.16360000  1.0
  C  C57  1  0.84360000  0.45920000  0.63804000  1.0
  C  C58  1  0.21470000  0.35443000  0.16404000  1.0
  C  C59  1  0.99900000  0.60406000  0.66360000  1.0
  C  C60  1  0.18340000  0.99410000  0.75000000  1.0
  C  C61  1  0.43130000  0.66517000  0.79498000  1.0
  C  C62  1  0.70480000  0.45429000  0.20470000  1.0
  C  C63  1  0.65640000  0.95920000  0.36196000  1.0
  C  C64  1  0.78530000  0.64557000  0.83596000  1.0
  C  C65  1  0.06870000  0.16517000  0.20502000  1.0
  C  C66  1  0.20480000  0.04571000  0.29530000  1.0
  C  C67  1  0.70480000  0.45429000  0.29530000  1.0
  C  C68  1  0.99900000  0.60406000  0.83640000  1.0
  C  C69  1  0.00100000  0.39594000  0.33640000  1.0
  C  C70  1  0.49190000  0.94780000  0.25000000  1.0
  C  C71  1  0.29520000  0.54571000  0.79530000  1.0
  C  C72  1  0.34360000  0.04080000  0.63804000  1.0
  C  C73  1  0.00810000  0.44780000  0.75000000  1.0
  C  C74  1  0.31660000  0.49410000  0.25000000  1.0
  C  C75  1  0.15640000  0.54080000  0.36196000  1.0
  N  N76  1  0.64116000  0.39188000  0.16052000  1.0
  N  N77  1  0.43070000  0.13312000  0.38331000  1.0
  N  N78  1  0.08650000  0.01720000  0.75000000  1.0
  N  N79  1  0.14116000  0.10812000  0.33948000  1.0
  N  N80  1  0.75560000  0.19966000  0.11824000  1.0
  N  N81  1  0.91750000  0.60500000  0.25000000  1.0
  N  N82  1  0.08250000  0.39500000  0.75000000  1.0
  N  N83  1  0.43070000  0.13312000  0.11669000  1.0
  N  N84  1  0.58250000  0.10500000  0.75000000  1.0
  N  N85  1  0.24440000  0.80034000  0.61824000  1.0
  N  N86  1  0.35884000  0.60812000  0.83948000  1.0
  N  N87  1  0.66610000  0.91182000  0.42201000  1.0
  N  N88  1  0.25560000  0.30034000  0.38176000  1.0
  N  N89  1  0.85884000  0.89188000  0.83948000  1.0
  N  N90  1  0.56930000  0.86688000  0.61669000  1.0
  N  N91  1  0.74440000  0.69966000  0.88176000  1.0
  N  N92  1  0.91350000  0.98280000  0.25000000  1.0
  N  N93  1  0.14116000  0.10812000  0.16052000  1.0
  N  N94  1  0.33390000  0.08818000  0.57799000  1.0
  N  N95  1  0.16610000  0.58818000  0.07799000  1.0
  N  N96  1  0.58650000  0.48280000  0.75000000  1.0
  N  N97  1  0.41350000  0.51720000  0.25000000  1.0
  N  N98  1  0.25560000  0.30034000  0.11824000  1.0
  N  N99  1  0.85884000  0.89188000  0.66052000  1.0
  N  N100  1  0.24440000  0.80034000  0.88176000  1.0
  N  N101  1  0.93070000  0.36688000  0.11669000  1.0
  N  N102  1  0.56930000  0.86688000  0.88331000  1.0
  N  N103  1  0.83390000  0.41182000  0.57799000  1.0
  N  N104  1  0.06930000  0.63312000  0.88331000  1.0
  N  N105  1  0.06930000  0.63312000  0.61669000  1.0
  N  N106  1  0.41750000  0.89500000  0.25000000  1.0
  N  N107  1  0.35884000  0.60812000  0.66052000  1.0
  N  N108  1  0.16610000  0.58818000  0.42201000  1.0
  N  N109  1  0.64116000  0.39188000  0.33948000  1.0
  N  N110  1  0.93070000  0.36688000  0.38331000  1.0
  N  N111  1  0.74440000  0.69966000  0.61824000  1.0
  N  N112  1  0.66610000  0.91182000  0.07799000  1.0
  N  N113  1  0.75560000  0.19966000  0.38176000  1.0
  N  N114  1  0.33390000  0.08818000  0.92201000  1.0
  N  N115  1  0.83390000  0.41182000  0.92201000  1.0
  O  O116  1  0.84880000  0.88519000  0.92510000  1.0
  O  O117  1  0.34880000  0.61481000  0.57490000  1.0
  O  O118  1  0.15120000  0.11481000  0.42510000  1.0
  O  O119  1  0.15120000  0.11481000  0.07490000  1.0
  O  O120  1  0.34880000  0.61481000  0.92510000  1.0
  O  O121  1  0.84880000  0.88519000  0.57490000  1.0
  O  O122  1  0.65120000  0.38519000  0.42510000  1.0
  O  O123  1  0.65120000  0.38519000  0.07490000  1.0
