# generated using pymatgen
data_CoMo4H12C12N9O7
_symmetry_space_group_name_H-M   'P 1'
_cell_length_a   12.11300000
_cell_length_b   12.22600000
_cell_length_c   12.28900000
_cell_angle_alpha   102.17800000
_cell_angle_beta   100.54500000
_cell_angle_gamma   119.66300000
_symmetry_Int_Tables_number   1
_chemical_formula_structural   CoMo4H12C12N9O7
_chemical_formula_sum   'Co2 Mo8 H24 C24 N18 O14'
_cell_volume   1454.65518183
_cell_formula_units_Z   2
loop_
 _symmetry_equiv_pos_site_id
 _symmetry_equiv_pos_as_xyz
  1  'x, y, z'
loop_
 _atom_site_type_symbol
 _atom_site_label
 _atom_site_symmetry_multiplicity
 _atom_site_fract_x
 _atom_site_fract_y
 _atom_site_fract_z
 _atom_site_occupancy
  Co  Co0  1  0.68803000  0.99432000  0.33610000  1.0
  Co  Co1  1  0.31197000  0.00568000  0.66390000  1.0
  Mo  Mo2  1  0.59832000  0.51295000  0.21558000  1.0
  Mo  Mo3  1  0.38993000  0.37824000  0.36334000  1.0
  Mo  Mo4  1  0.46054000  0.68370000  0.40733000  1.0
  Mo  Mo5  1  0.29381000  0.58133000  0.58683000  1.0
  Mo  Mo6  1  0.40168000  0.48705000  0.78442000  1.0
  Mo  Mo7  1  0.61007000  0.62176000  0.63666000  1.0
  Mo  Mo8  1  0.53946000  0.31630000  0.59267000  1.0
  Mo  Mo9  1  0.70619000  0.41867000  0.41317000  1.0
  H  H10  1  0.00800000  0.24000000  0.86280000  1.0
  H  H11  1  0.98380000  0.21870000  0.97950000  1.0
  H  H12  1  0.31470000  0.51300000  0.09170000  1.0
  H  H13  1  0.36220000  0.21870000  0.02850000  1.0
  H  H14  1  0.10310000  0.37060000  0.17310000  1.0
  H  H15  1  0.08000000  0.46710000  0.25670000  1.0
  H  H16  1  0.97100000  0.26310000  0.34240000  1.0
  H  H17  1  0.63780000  0.03410000  0.08490000  1.0
  H  H18  1  0.92570000  0.50740000  0.24880000  1.0
  H  H19  1  0.89490000  0.60470000  0.20680000  1.0
  H  H20  1  0.04440000  0.68790000  0.46590000  1.0
  H  H21  1  0.33610000  0.96950000  0.40670000  1.0
  H  H22  1  0.99200000  0.76000000  0.13720000  1.0
  H  H23  1  0.01620000  0.78130000  0.02050000  1.0
  H  H24  1  0.68530000  0.48700000  0.90830000  1.0
  H  H25  1  0.63780000  0.78130000  0.97150000  1.0
  H  H26  1  0.89690000  0.62940000  0.82690000  1.0
  H  H27  1  0.92000000  0.53290000  0.74330000  1.0
  H  H28  1  0.02900000  0.73690000  0.65760000  1.0
  H  H29  1  0.36220000  0.96590000  0.91510000  1.0
  H  H30  1  0.07430000  0.49260000  0.75120000  1.0
  H  H31  1  0.10510000  0.39530000  0.79320000  1.0
  H  H32  1  0.95560000  0.31210000  0.53410000  1.0
  H  H33  1  0.66390000  0.03050000  0.59330000  1.0
  C  C34  1  0.02950000  0.40440000  0.97760000  1.0
  C  C35  1  0.01440000  0.44380000  0.08540000  1.0
  C  C36  1  0.98330000  0.54220000  0.10930000  1.0
  C  C37  1  0.04170000  0.28310000  0.94810000  1.0
  C  C38  1  0.29930000  0.42800000  0.06460000  1.0
  C  C39  1  0.32070000  0.26550000  0.02930000  1.0
  C  C40  1  0.03880000  0.39420000  0.18140000  1.0
  C  C41  1  0.90300000  0.22570000  0.27010000  1.0
  C  C42  1  0.72570000  0.10510000  0.13100000  1.0
  C  C43  1  0.96210000  0.58330000  0.22200000  1.0
  C  C44  1  0.10190000  0.73840000  0.42990000  1.0
  C  C45  1  0.25750000  0.88870000  0.39550000  1.0
  C  C46  1  0.97050000  0.59560000  0.02240000  1.0
  C  C47  1  0.98560000  0.55620000  0.91460000  1.0
  C  C48  1  0.01670000  0.45780000  0.89070000  1.0
  C  C49  1  0.95830000  0.71690000  0.05190000  1.0
  C  C50  1  0.70070000  0.57200000  0.93540000  1.0
  C  C51  1  0.67930000  0.73450000  0.97070000  1.0
  C  C52  1  0.96120000  0.60580000  0.81860000  1.0
  C  C53  1  0.09700000  0.77430000  0.72990000  1.0
  C  C54  1  0.27430000  0.89490000  0.86900000  1.0
  C  C55  1  0.03790000  0.41670000  0.77800000  1.0
  C  C56  1  0.89810000  0.26160000  0.57010000  1.0
  C  C57  1  0.74250000  0.11130000  0.60450000  1.0
  N  N58  1  0.39010000  0.40080000  0.08900000  1.0
  N  N59  1  0.17900000  0.31410000  0.99380000  1.0
  N  N60  1  0.19270000  0.20660000  0.97380000  1.0
  N  N61  1  0.78320000  0.11760000  0.24140000  1.0
  N  N62  1  0.91660000  0.27610000  0.18480000  1.0
  N  N63  1  0.80030000  0.19840000  0.09210000  1.0
  N  N64  1  0.21230000  0.85870000  0.48750000  1.0
  N  N65  1  0.08120000  0.69670000  0.31580000  1.0
  N  N66  1  0.18080000  0.79420000  0.29160000  1.0
  N  N67  1  0.60990000  0.59920000  0.91100000  1.0
  N  N68  1  0.82100000  0.68590000  0.00620000  1.0
  N  N69  1  0.80730000  0.79340000  0.02620000  1.0
  N  N70  1  0.21680000  0.88240000  0.75860000  1.0
  N  N71  1  0.08340000  0.72390000  0.81520000  1.0
  N  N72  1  0.19970000  0.80160000  0.90790000  1.0
  N  N73  1  0.78770000  0.14130000  0.51250000  1.0
  N  N74  1  0.91880000  0.30330000  0.68420000  1.0
  N  N75  1  0.81920000  0.20580000  0.70840000  1.0
  O  O76  1  0.73860000  0.56650000  0.35250000  1.0
  O  O77  1  0.50020000  0.35100000  0.28460000  1.0
  O  O78  1  0.49800000  0.56040000  0.32640000  1.0
  O  O79  1  0.35690000  0.26260000  0.43690000  1.0
  O  O80  1  0.39240000  0.51580000  0.47940000  1.0
  O  O81  1  0.57840000  0.83750000  0.40200000  1.0
  O  O82  1  0.40600000  0.73030000  0.53900000  1.0
  O  O83  1  0.26140000  0.43350000  0.64750000  1.0
  O  O84  1  0.49980000  0.64900000  0.71540000  1.0
  O  O85  1  0.50200000  0.43960000  0.67360000  1.0
  O  O86  1  0.64310000  0.73740000  0.56310000  1.0
  O  O87  1  0.60760000  0.48420000  0.52060000  1.0
  O  O88  1  0.42160000  0.16250000  0.59800000  1.0
  O  O89  1  0.59400000  0.26970000  0.46100000  1.0
