# generated using pymatgen
data_FeH4Au2(C4N3)2
_symmetry_space_group_name_H-M   'P 1'
_cell_length_a   7.43060000
_cell_length_b   13.17700000
_cell_length_c   14.01940000
_cell_angle_alpha   90.00000000
_cell_angle_beta   91.37800000
_cell_angle_gamma   90.00000000
_symmetry_Int_Tables_number   1
_chemical_formula_structural   FeH4Au2(C4N3)2
_chemical_formula_sum   'Fe4 H16 Au8 C32 N24'
_cell_volume   1372.28475614
_cell_formula_units_Z   4
loop_
 _symmetry_equiv_pos_site_id
 _symmetry_equiv_pos_as_xyz
  1  'x, y, z'
loop_
 _atom_site_type_symbol
 _atom_site_label
 _atom_site_symmetry_multiplicity
 _atom_site_fract_x
 _atom_site_fract_y
 _atom_site_fract_z
 _atom_site_occupancy
  Fe  Fe0  1  0.50000000  0.50000000  0.00000000  1.0
  Fe  Fe1  1  0.00000000  0.00000000  0.00000000  1.0
  Fe  Fe2  1  0.00000000  0.00000000  0.50000000  1.0
  Fe  Fe3  1  0.50000000  0.50000000  0.50000000  1.0
  H  H4  1  0.37500000  0.28400000  0.01100000  1.0
  H  H5  1  0.37200000  0.15400000  0.11500000  1.0
  H  H6  1  0.45700000  0.19000000  0.26300000  1.0
  H  H7  1  0.52600000  0.45900000  0.20400000  1.0
  H  H8  1  0.12500000  0.78400000  0.98900000  1.0
  H  H9  1  0.12800000  0.65400000  0.88500000  1.0
  H  H10  1  0.04300000  0.69000000  0.73700000  1.0
  H  H11  1  0.97400000  0.95900000  0.79600000  1.0
  H  H12  1  0.62500000  0.71600000  0.98900000  1.0
  H  H13  1  0.62800000  0.84600000  0.88500000  1.0
  H  H14  1  0.54300000  0.81000000  0.73700000  1.0
  H  H15  1  0.47400000  0.54100000  0.79600000  1.0
  H  H16  1  0.87500000  0.21600000  0.01100000  1.0
  H  H17  1  0.87200000  0.34600000  0.11500000  1.0
  H  H18  1  0.95700000  0.31000000  0.26300000  1.0
  H  H19  1  0.02600000  0.04100000  0.20400000  1.0
  Au  Au20  1  0.73154000  0.24735000  0.75933000  1.0
  Au  Au21  1  0.97712000  0.46033000  0.77643000  1.0
  Au  Au22  1  0.76846000  0.74735000  0.24067000  1.0
  Au  Au23  1  0.52288000  0.96033000  0.22357000  1.0
  Au  Au24  1  0.26846000  0.75265000  0.24067000  1.0
  Au  Au25  1  0.02288000  0.53967000  0.22357000  1.0
  Au  Au26  1  0.23154000  0.25265000  0.75933000  1.0
  Au  Au27  1  0.47712000  0.03967000  0.77643000  1.0
  C  C28  1  0.65320000  0.34030000  0.86140000  1.0
  C  C29  1  0.15050000  0.45920000  0.88550000  1.0
  C  C30  1  0.40040000  0.29960000  0.06890000  1.0
  C  C31  1  0.39320000  0.21980000  0.13320000  1.0
  C  C32  1  0.44430000  0.23940000  0.22540000  1.0
  C  C33  1  0.49900000  0.40450000  0.18780000  1.0
  C  C34  1  0.81080000  0.15550000  0.65480000  1.0
  C  C35  1  0.81690000  0.48310000  0.66390000  1.0
  C  C36  1  0.84680000  0.84030000  0.13860000  1.0
  C  C37  1  0.34950000  0.95920000  0.11450000  1.0
  C  C38  1  0.09960000  0.79960000  0.93110000  1.0
  C  C39  1  0.10680000  0.71980000  0.86680000  1.0
  C  C40  1  0.05570000  0.73940000  0.77460000  1.0
  C  C41  1  0.00100000  0.90450000  0.81220000  1.0
  C  C42  1  0.68920000  0.65550000  0.34520000  1.0
  C  C43  1  0.68310000  0.98310000  0.33610000  1.0
  C  C44  1  0.34680000  0.65970000  0.13860000  1.0
  C  C45  1  0.84950000  0.54080000  0.11450000  1.0
  C  C46  1  0.59960000  0.70040000  0.93110000  1.0
  C  C47  1  0.60680000  0.78020000  0.86680000  1.0
  C  C48  1  0.55570000  0.76060000  0.77460000  1.0
  C  C49  1  0.50100000  0.59550000  0.81220000  1.0
  C  C50  1  0.18920000  0.84450000  0.34520000  1.0
  C  C51  1  0.18310000  0.51690000  0.33610000  1.0
  C  C52  1  0.15320000  0.15970000  0.86140000  1.0
  C  C53  1  0.65050000  0.04080000  0.88550000  1.0
  C  C54  1  0.90040000  0.20040000  0.06890000  1.0
  C  C55  1  0.89320000  0.28020000  0.13320000  1.0
  C  C56  1  0.94430000  0.26060000  0.22540000  1.0
  C  C57  1  0.99900000  0.09550000  0.18780000  1.0
  C  C58  1  0.31080000  0.34450000  0.65480000  1.0
  C  C59  1  0.31690000  0.01690000  0.66390000  1.0
  N  N60  1  0.60510000  0.39850000  0.91700000  1.0
  N  N61  1  0.27060000  0.47130000  0.93830000  1.0
  N  N62  1  0.45820000  0.39260000  0.09640000  1.0
  N  N63  1  0.49750000  0.33250000  0.25430000  1.0
  N  N64  1  0.85710000  0.10080000  0.59740000  1.0
  N  N65  1  0.71780000  0.50020000  0.60200000  1.0
  N  N66  1  0.89490000  0.89850000  0.08300000  1.0
  N  N67  1  0.22940000  0.97130000  0.06170000  1.0
  N  N68  1  0.04180000  0.89260000  0.90360000  1.0
  N  N69  1  0.00250000  0.83250000  0.74570000  1.0
  N  N70  1  0.64290000  0.60080000  0.40260000  1.0
  N  N71  1  0.78220000  0.00020000  0.39800000  1.0
  N  N72  1  0.39490000  0.60150000  0.08300000  1.0
  N  N73  1  0.72940000  0.52870000  0.06170000  1.0
  N  N74  1  0.54180000  0.60740000  0.90360000  1.0
  N  N75  1  0.50250000  0.66750000  0.74570000  1.0
  N  N76  1  0.14290000  0.89920000  0.40260000  1.0
  N  N77  1  0.28220000  0.49980000  0.39800000  1.0
  N  N78  1  0.10510000  0.10150000  0.91700000  1.0
  N  N79  1  0.77060000  0.02870000  0.93830000  1.0
  N  N80  1  0.95820000  0.10740000  0.09640000  1.0
  N  N81  1  0.99750000  0.16750000  0.25430000  1.0
  N  N82  1  0.35710000  0.39920000  0.59740000  1.0
  N  N83  1  0.21780000  0.99980000  0.60200000  1.0
