# generated using pymatgen
data_Nd2H6C18(SO4)3
_symmetry_space_group_name_H-M   'P 1'
_cell_length_a   9.80350000
_cell_length_b   10.94230000
_cell_length_c   19.42890000
_cell_angle_alpha   85.59600000
_cell_angle_beta   75.68600000
_cell_angle_gamma   63.62200000
_symmetry_Int_Tables_number   1
_chemical_formula_structural   Nd2H6C18(SO4)3
_chemical_formula_sum   'Nd4 H12 C36 S6 O24'
_cell_volume   1807.91352581
_cell_formula_units_Z   2
loop_
 _symmetry_equiv_pos_site_id
 _symmetry_equiv_pos_as_xyz
  1  'x, y, z'
loop_
 _atom_site_type_symbol
 _atom_site_label
 _atom_site_symmetry_multiplicity
 _atom_site_fract_x
 _atom_site_fract_y
 _atom_site_fract_z
 _atom_site_occupancy
  Nd  Nd0  1  0.71004000  0.02729000  0.50041000  1.0
  Nd  Nd1  1  0.24949000  0.48030000  0.99082000  1.0
  Nd  Nd2  1  0.28996000  0.97271000  0.49959000  1.0
  Nd  Nd3  1  0.75051000  0.51970000  0.00918000  1.0
  H  H4  1  0.96780000  0.64390000  0.40250000  1.0
  H  H5  1  0.09150000  0.39410000  0.40400000  1.0
  H  H6  1  0.08800000  0.15710000  0.68880000  1.0
  H  H7  1  0.95550000  0.26220000  0.80830000  1.0
  H  H8  1  0.10150000  0.88610000  0.90260000  1.0
  H  H9  1  0.96070000  0.13240000  0.92800000  1.0
  H  H10  1  0.03220000  0.35610000  0.59750000  1.0
  H  H11  1  0.90850000  0.60590000  0.59600000  1.0
  H  H12  1  0.91200000  0.84290000  0.31120000  1.0
  H  H13  1  0.04450000  0.73780000  0.19170000  1.0
  H  H14  1  0.89850000  0.11390000  0.09740000  1.0
  H  H15  1  0.03930000  0.86760000  0.07200000  1.0
  C  C16  1  0.10190000  0.79330000  0.45330000  1.0
  C  C17  1  0.94430000  0.71940000  0.93250000  1.0
  C  C18  1  0.05790000  0.59280000  0.41880000  1.0
  C  C19  1  0.15550000  0.26880000  0.81720000  1.0
  C  C20  1  0.89710000  0.86850000  0.93650000  1.0
  C  C21  1  0.40210000  0.11200000  0.62600000  1.0
  C  C22  1  0.63100000  0.25810000  0.98410000  1.0
  C  C23  1  0.12900000  0.44880000  0.41960000  1.0
  C  C24  1  0.26030000  0.39930000  0.44630000  1.0
  C  C25  1  0.13630000  0.64910000  0.44460000  1.0
  C  C26  1  0.36080000  0.25460000  0.45940000  1.0
  C  C27  1  0.28690000  0.16720000  0.69630000  1.0
  C  C28  1  0.13530000  0.18300000  0.71710000  1.0
  C  C29  1  0.75450000  0.11730000  0.96170000  1.0
  C  C30  1  0.05890000  0.24280000  0.78630000  1.0
  C  C31  1  0.12180000  0.33240000  0.88820000  1.0
  C  C32  1  0.99370000  0.93200000  0.92090000  1.0
  C  C33  1  0.91260000  0.07440000  0.93540000  1.0
  C  C34  1  0.89810000  0.20670000  0.54670000  1.0
  C  C35  1  0.05570000  0.28060000  0.06750000  1.0
  C  C36  1  0.94210000  0.40720000  0.58120000  1.0
  C  C37  1  0.84450000  0.73120000  0.18280000  1.0
  C  C38  1  0.10290000  0.13150000  0.06350000  1.0
  C  C39  1  0.59790000  0.88800000  0.37400000  1.0
  C  C40  1  0.36900000  0.74190000  0.01590000  1.0
  C  C41  1  0.87100000  0.55120000  0.58040000  1.0
  C  C42  1  0.73970000  0.60070000  0.55370000  1.0
  C  C43  1  0.86370000  0.35090000  0.55540000  1.0
  C  C44  1  0.63920000  0.74540000  0.54060000  1.0
  C  C45  1  0.71310000  0.83280000  0.30370000  1.0
  C  C46  1  0.86470000  0.81700000  0.28290000  1.0
  C  C47  1  0.24550000  0.88270000  0.03830000  1.0
  C  C48  1  0.94110000  0.75720000  0.21370000  1.0
  C  C49  1  0.87820000  0.66760000  0.11180000  1.0
  C  C50  1  0.00630000  0.06800000  0.07910000  1.0
  C  C51  1  0.08740000  0.92560000  0.06460000  1.0
  S  S52  1  0.29900000  0.52630000  0.46973000  1.0
  S  S53  1  0.33770000  0.22280000  0.76153000  1.0
  S  S54  1  0.70440000  0.98360000  0.96794000  1.0
  S  S55  1  0.70100000  0.47370000  0.53027000  1.0
  S  S56  1  0.66230000  0.77720000  0.23847000  1.0
  S  S57  1  0.29560000  0.01640000  0.03206000  1.0
  O  O58  1  0.53300000  0.11320000  0.61920000  1.0
  O  O59  1  0.49230000  0.27920000  0.98850000  1.0
  O  O60  1  0.23420000  0.34120000  0.90390000  1.0
  O  O61  1  0.31450000  0.16950000  0.44830000  1.0
  O  O62  1  0.98080000  0.88400000  0.43640000  1.0
  O  O63  1  0.19880000  0.81510000  0.47590000  1.0
  O  O64  1  0.08880000  0.64200000  0.91930000  1.0
  O  O65  1  0.48210000  0.23060000  0.48000000  1.0
  O  O66  1  0.98650000  0.37100000  0.92690000  1.0
  O  O67  1  0.83680000  0.68160000  0.94220000  1.0
  O  O68  1  0.67220000  0.34580000  0.99670000  1.0
  O  O69  1  0.36250000  0.06620000  0.58240000  1.0
  O  O70  1  0.46700000  0.88680000  0.38080000  1.0
  O  O71  1  0.50770000  0.72080000  0.01150000  1.0
  O  O72  1  0.76580000  0.65880000  0.09610000  1.0
  O  O73  1  0.68550000  0.83050000  0.55170000  1.0
  O  O74  1  0.01920000  0.11600000  0.56360000  1.0
  O  O75  1  0.80120000  0.18490000  0.52410000  1.0
  O  O76  1  0.91120000  0.35800000  0.08070000  1.0
  O  O77  1  0.51790000  0.76940000  0.52000000  1.0
  O  O78  1  0.01350000  0.62900000  0.07310000  1.0
  O  O79  1  0.16320000  0.31840000  0.05780000  1.0
  O  O80  1  0.32780000  0.65420000  0.00330000  1.0
  O  O81  1  0.63750000  0.93380000  0.41760000  1.0
