# generated using pymatgen
data_MnH8(C7O2)2
_symmetry_space_group_name_H-M   'P 1'
_cell_length_a   13.81900000
_cell_length_b   15.38200000
_cell_length_c   24.38300000
_cell_angle_alpha   100.41000000
_cell_angle_beta   95.25000000
_cell_angle_gamma   101.09000000
_symmetry_Int_Tables_number   1
_chemical_formula_structural   MnH8(C7O2)2
_chemical_formula_sum   'Mn8 H64 C112 O32'
_cell_volume   4959.45516844
_cell_formula_units_Z   8
loop_
 _symmetry_equiv_pos_site_id
 _symmetry_equiv_pos_as_xyz
  1  'x, y, z'
loop_
 _atom_site_type_symbol
 _atom_site_label
 _atom_site_symmetry_multiplicity
 _atom_site_fract_x
 _atom_site_fract_y
 _atom_site_fract_z
 _atom_site_occupancy
  Mn  Mn0  1  0.17459000  0.64362000  0.32342000  1.0
  Mn  Mn1  1  0.36785000  0.55619000  0.27385000  1.0
  Mn  Mn2  1  0.60873000  0.65404000  0.32475000  1.0
  Mn  Mn3  1  0.81866000  0.69843000  0.26261000  1.0
  Mn  Mn4  1  0.82541000  0.35638000  0.67658000  1.0
  Mn  Mn5  1  0.63215000  0.44381000  0.72615000  1.0
  Mn  Mn6  1  0.39127000  0.34596000  0.67525000  1.0
  Mn  Mn7  1  0.18134000  0.30157000  0.73739000  1.0
  H  H8  1  0.28760000  0.35250000  0.31200000  1.0
  H  H9  1  0.26070000  0.19910000  0.30980000  1.0
  H  H10  1  0.98040000  0.19580000  0.33400000  1.0
  H  H11  1  0.00630000  0.34770000  0.33420000  1.0
  H  H12  1  0.23880000  0.07760000  0.35100000  1.0
  H  H13  1  0.21140000  0.92440000  0.34650000  1.0
  H  H14  1  0.93270000  0.89680000  0.28420000  1.0
  H  H15  1  0.95970000  0.04960000  0.28670000  1.0
  H  H16  1  0.21870000  0.47260000  0.10110000  1.0
  H  H17  1  0.13640000  0.44500000  0.01150000  1.0
  H  H18  1  0.93420000  0.57610000  0.06910000  1.0
  H  H19  1  0.02110000  0.61160000  0.15630000  1.0
  H  H20  1  0.54940000  0.76290000  0.44270000  1.0
  H  H21  1  0.59140000  0.89730000  0.50770000  1.0
  H  H22  1  0.36860000  0.98330000  0.43500000  1.0
  H  H23  1  0.32650000  0.85030000  0.37050000  1.0
  H  H24  1  0.68570000  0.58820000  0.13540000  1.0
  H  H25  1  0.65670000  0.53280000  0.04020000  1.0
  H  H26  1  0.37000000  0.52270000  0.04430000  1.0
  H  H27  1  0.39820000  0.56910000  0.13910000  1.0
  H  H28  1  0.69350000  0.40740000  0.31420000  1.0
  H  H29  1  0.74080000  0.27250000  0.31800000  1.0
  H  H30  1  0.45920000  0.13830000  0.26480000  1.0
  H  H31  1  0.41390000  0.27350000  0.25880000  1.0
  H  H32  1  0.75350000  0.11640000  0.25970000  1.0
  H  H33  1  0.78760000  0.97680000  0.26340000  1.0
  H  H34  1  0.56150000  0.92650000  0.35060000  1.0
  H  H35  1  0.51960000  0.05880000  0.34050000  1.0
  H  H36  1  0.76340000  0.59660000  0.48420000  1.0
  H  H37  1  0.86710000  0.53340000  0.53800000  1.0
  H  H38  1  0.03770000  0.51830000  0.41630000  1.0
  H  H39  1  0.93510000  0.58130000  0.36430000  1.0
  H  H40  1  0.71240000  0.64750000  0.68800000  1.0
  H  H41  1  0.73930000  0.80090000  0.69020000  1.0
  H  H42  1  0.01960000  0.80420000  0.66600000  1.0
  H  H43  1  0.99370000  0.65230000  0.66580000  1.0
  H  H44  1  0.76120000  0.92240000  0.64900000  1.0
  H  H45  1  0.78860000  0.07560000  0.65350000  1.0
  H  H46  1  0.06730000  0.10320000  0.71580000  1.0
  H  H47  1  0.04030000  0.95040000  0.71330000  1.0
  H  H48  1  0.78130000  0.52740000  0.89890000  1.0
  H  H49  1  0.86360000  0.55500000  0.98850000  1.0
  H  H50  1  0.06580000  0.42390000  0.93090000  1.0
  H  H51  1  0.97890000  0.38840000  0.84370000  1.0
  H  H52  1  0.45060000  0.23710000  0.55730000  1.0
  H  H53  1  0.40860000  0.10270000  0.49230000  1.0
  H  H54  1  0.63140000  0.01670000  0.56500000  1.0
  H  H55  1  0.67350000  0.14970000  0.62950000  1.0
  H  H56  1  0.31430000  0.41180000  0.86460000  1.0
  H  H57  1  0.34330000  0.46720000  0.95980000  1.0
  H  H58  1  0.63000000  0.47730000  0.95570000  1.0
  H  H59  1  0.60180000  0.43090000  0.86090000  1.0
  H  H60  1  0.30650000  0.59260000  0.68580000  1.0
  H  H61  1  0.25920000  0.72750000  0.68200000  1.0
  H  H62  1  0.54080000  0.86170000  0.73520000  1.0
  H  H63  1  0.58610000  0.72650000  0.74120000  1.0
  H  H64  1  0.24650000  0.88360000  0.74030000  1.0
  H  H65  1  0.21240000  0.02320000  0.73660000  1.0
  H  H66  1  0.43850000  0.07350000  0.64940000  1.0
  H  H67  1  0.48040000  0.94120000  0.65950000  1.0
  H  H68  1  0.23660000  0.40340000  0.51580000  1.0
  H  H69  1  0.13290000  0.46660000  0.46200000  1.0
  H  H70  1  0.96230000  0.48170000  0.58370000  1.0
  H  H71  1  0.06490000  0.41870000  0.63570000  1.0
  C  C72  1  0.14950000  0.36690000  0.32263000  1.0
  C  C73  1  0.22470000  0.32130000  0.31590000  1.0
  C  C74  1  0.20850000  0.22870000  0.31490000  1.0
  C  C75  1  0.11850000  0.18060000  0.32110000  1.0
  C  C76  1  0.04270000  0.22670000  0.32890000  1.0
  C  C77  1  0.05860000  0.31820000  0.32930000  1.0
  C  C78  1  0.10110000  0.08110000  0.31960000  1.0
  C  C79  1  0.17600000  0.04190000  0.33720000  1.0
  C  C80  1  0.15910000  0.94930000  0.33440000  1.0
  C  C81  1  0.06880000  0.89340000  0.31481000  1.0
  C  C82  1  0.99560000  0.93250000  0.29770000  1.0
  C  C83  1  0.01190000  0.02530000  0.29960000  1.0
  C  C84  1  0.16660000  0.46590000  0.32284000  1.0
  C  C85  1  0.05290000  0.79250000  0.31271000  1.0
  C  C86  1  0.13080000  0.54890000  0.13838000  1.0
  C  C87  1  0.16270000  0.49640000  0.09450000  1.0
  C  C88  1  0.11220000  0.47880000  0.04070000  1.0
  C  C89  1  0.02700000  0.50990000  0.02890000  1.0
  C  C90  1  0.99370000  0.55730000  0.07460000  1.0
  C  C91  1  0.04520000  0.57740000  0.12720000  1.0
  C  C92  1  0.18600000  0.56880000  0.19684000  1.0
  C  C93  1  0.43450000  0.79320000  0.39947000  1.0
  C  C94  1  0.51290000  0.80740000  0.44073000  1.0
  C  C95  1  0.53790000  0.88850000  0.47981000  1.0
  C  C96  1  0.48610000  0.95640000  0.47864000  1.0
  C  C97  1  0.40610000  0.93940000  0.43690000  1.0
  C  C98  1  0.38070000  0.85970000  0.39808000  1.0
  C  C99  1  0.40830000  0.70850000  0.35520000  1.0
  C  C100  1  0.54520000  0.58510000  0.14765000  1.0
  C  C101  1  0.62070000  0.57360000  0.11723000  1.0
  C  C102  1  0.60320000  0.54040000  0.05967000  1.0
  C  C103  1  0.50990000  0.51850000  0.03090000  1.0
  C  C104  1  0.43470000  0.53350000  0.06240000  1.0
  C  C105  1  0.45170000  0.56340000  0.11930000  1.0
  C  C106  1  0.56380000  0.61880000  0.20997000  1.0
  C  C107  1  0.54870000  0.35460000  0.28890000  1.0
  C  C108  1  0.64610000  0.35350000  0.30490000  1.0
  C  C109  1  0.67430000  0.27240000  0.30750000  1.0
  C  C110  1  0.60480000  0.19110000  0.29460000  1.0
  C  C111  1  0.50640000  0.19230000  0.27540000  1.0
  C  C112  1  0.47910000  0.27330000  0.27220000  1.0
  C  C113  1  0.63380000  0.10430000  0.30040000  1.0
  C  C114  1  0.71310000  0.07750000  0.27740000  1.0
  C  C115  1  0.73430000  0.99390000  0.27990000  1.0
  C  C116  1  0.67660000  0.93560000  0.30690000  1.0
  C  C117  1  0.59910000  0.96350000  0.33070000  1.0
  C  C118  1  0.57570000  0.04400000  0.32610000  1.0
  C  C119  1  0.51710000  0.44330000  0.28880000  1.0
  C  C120  1  0.69450000  0.84270000  0.30873000  1.0
  C  C121  1  0.83920000  0.59750000  0.41961000  1.0
  C  C122  1  0.82000000  0.58180000  0.47030000  1.0
  C  C123  1  0.88260000  0.54360000  0.50310000  1.0
  C  C124  1  0.96720000  0.52110000  0.48359000  1.0
  C  C125  1  0.98290000  0.53500000  0.43130000  1.0
  C  C126  1  0.92090000  0.57260000  0.39970000  1.0
  C  C127  1  0.76890000  0.63570000  0.38517000  1.0
  C  C128  1  0.85050000  0.63310000  0.67737000  1.0
  C  C129  1  0.77530000  0.67870000  0.68410000  1.0
  C  C130  1  0.79150000  0.77130000  0.68510000  1.0
  C  C131  1  0.88150000  0.81940000  0.67890000  1.0
  C  C132  1  0.95730000  0.77330000  0.67110000  1.0
  C  C133  1  0.94140000  0.68180000  0.67070000  1.0
  C  C134  1  0.89890000  0.91890000  0.68040000  1.0
  C  C135  1  0.82400000  0.95810000  0.66280000  1.0
  C  C136  1  0.84090000  0.05070000  0.66560000  1.0
  C  C137  1  0.93120000  0.10660000  0.68519000  1.0
  C  C138  1  0.00440000  0.06750000  0.70230000  1.0
  C  C139  1  0.98810000  0.97470000  0.70040000  1.0
  C  C140  1  0.83340000  0.53410000  0.67716000  1.0
  C  C141  1  0.94710000  0.20750000  0.68729000  1.0
  C  C142  1  0.86920000  0.45110000  0.86162000  1.0
  C  C143  1  0.83730000  0.50360000  0.90550000  1.0
  C  C144  1  0.88780000  0.52120000  0.95930000  1.0
  C  C145  1  0.97300000  0.49010000  0.97110000  1.0
  C  C146  1  0.00630000  0.44270000  0.92540000  1.0
  C  C147  1  0.95480000  0.42260000  0.87280000  1.0
  C  C148  1  0.81400000  0.43120000  0.80316000  1.0
  C  C149  1  0.56550000  0.20680000  0.60053000  1.0
  C  C150  1  0.48710000  0.19260000  0.55927000  1.0
  C  C151  1  0.46210000  0.11150000  0.52019000  1.0
  C  C152  1  0.51390000  0.04360000  0.52136000  1.0
  C  C153  1  0.59390000  0.06060000  0.56310000  1.0
  C  C154  1  0.61930000  0.14030000  0.60192000  1.0
  C  C155  1  0.59170000  0.29150000  0.64480000  1.0
  C  C156  1  0.45480000  0.41490000  0.85235000  1.0
  C  C157  1  0.37930000  0.42640000  0.88277000  1.0
  C  C158  1  0.39680000  0.45960000  0.94033000  1.0
  C  C159  1  0.49010000  0.48150000  0.96910000  1.0
  C  C160  1  0.56530000  0.46650000  0.93760000  1.0
  C  C161  1  0.54830000  0.43660000  0.88070000  1.0
  C  C162  1  0.43620000  0.38120000  0.79003000  1.0
  C  C163  1  0.45130000  0.64540000  0.71110000  1.0
  C  C164  1  0.35390000  0.64650000  0.69510000  1.0
  C  C165  1  0.32570000  0.72760000  0.69250000  1.0
  C  C166  1  0.39520000  0.80890000  0.70540000  1.0
  C  C167  1  0.49360000  0.80770000  0.72460000  1.0
  C  C168  1  0.52090000  0.72670000  0.72780000  1.0
  C  C169  1  0.36620000  0.89570000  0.69960000  1.0
  C  C170  1  0.28690000  0.92250000  0.72260000  1.0
  C  C171  1  0.26570000  0.00610000  0.72010000  1.0
  C  C172  1  0.32340000  0.06440000  0.69310000  1.0
  C  C173  1  0.40090000  0.03650000  0.66930000  1.0
  C  C174  1  0.42430000  0.95600000  0.67390000  1.0
  C  C175  1  0.48290000  0.55670000  0.71120000  1.0
  C  C176  1  0.30550000  0.15730000  0.69127000  1.0
  C  C177  1  0.16080000  0.40250000  0.58039000  1.0
  C  C178  1  0.18000000  0.41820000  0.52970000  1.0
  C  C179  1  0.11740000  0.45640000  0.49690000  1.0
  C  C180  1  0.03280000  0.47890000  0.51641000  1.0
  C  C181  1  0.01710000  0.46500000  0.56870000  1.0
  C  C182  1  0.07910000  0.42740000  0.60030000  1.0
  C  C183  1  0.23110000  0.36430000  0.61483000  1.0
  O  O184  1  0.25440000  0.50861000  0.32274000  1.0
  O  O185  1  0.09550000  0.50480000  0.32353000  1.0
  O  O186  1  0.12730000  0.76408000  0.32951000  1.0
  O  O187  1  0.97090000  0.74328000  0.29460000  1.0
  O  O188  1  0.26360000  0.53810000  0.20321000  1.0
  O  O189  1  0.14910000  0.61253000  0.23492000  1.0
  O  O190  1  0.33354000  0.69475000  0.31831000  1.0
  O  O191  1  0.46247000  0.64960000  0.35416000  1.0
  O  O192  1  0.49077000  0.62568000  0.23656000  1.0
  O  O193  1  0.65084000  0.63914000  0.23431000  1.0
  O  O194  1  0.58100000  0.51266000  0.31049000  1.0
  O  O195  1  0.42980000  0.44139000  0.26887000  1.0
  O  O196  1  0.63210000  0.79190000  0.32856000  1.0
  O  O197  1  0.77024000  0.82207000  0.28805000  1.0
  O  O198  1  0.69250000  0.65400000  0.40467000  1.0
  O  O199  1  0.78530000  0.64300000  0.33548000  1.0
  O  O200  1  0.74560000  0.49139000  0.67726000  1.0
  O  O201  1  0.90450000  0.49520000  0.67647000  1.0
  O  O202  1  0.87270000  0.23592000  0.67049000  1.0
  O  O203  1  0.02910000  0.25672000  0.70540000  1.0
  O  O204  1  0.73640000  0.46190000  0.79679000  1.0
  O  O205  1  0.85090000  0.38747000  0.76508000  1.0
  O  O206  1  0.66646000  0.30525000  0.68169000  1.0
  O  O207  1  0.53753000  0.35040000  0.64584000  1.0
  O  O208  1  0.50923000  0.37432000  0.76344000  1.0
  O  O209  1  0.34916000  0.36086000  0.76569000  1.0
  O  O210  1  0.41900000  0.48734000  0.68951000  1.0
  O  O211  1  0.57020000  0.55861000  0.73113000  1.0
  O  O212  1  0.36790000  0.20810000  0.67144000  1.0
  O  O213  1  0.22976000  0.17793000  0.71195000  1.0
  O  O214  1  0.30750000  0.34600000  0.59533000  1.0
  O  O215  1  0.21470000  0.35700000  0.66452000  1.0
