# generated using pymatgen
data_Mn3H13C22S3NO13
_symmetry_space_group_name_H-M   'P 1'
_cell_length_a   10.65960000
_cell_length_b   16.47330000
_cell_length_c   21.77910000
_cell_angle_alpha   92.68800000
_cell_angle_beta   90.00000000
_cell_angle_gamma   90.00000000
_symmetry_Int_Tables_number   1
_chemical_formula_structural   Mn3H13C22S3NO13
_chemical_formula_sum   'Mn12 H52 C88 S12 N4 O52'
_cell_volume   3820.17568197
_cell_formula_units_Z   4
loop_
 _symmetry_equiv_pos_site_id
 _symmetry_equiv_pos_as_xyz
  1  'x, y, z'
loop_
 _atom_site_type_symbol
 _atom_site_label
 _atom_site_symmetry_multiplicity
 _atom_site_fract_x
 _atom_site_fract_y
 _atom_site_fract_z
 _atom_site_occupancy
  Mn  Mn0  1  0.69395000  0.73866000  0.13458000  1.0
  Mn  Mn1  1  0.73483000  0.75259000  0.97447000  1.0
  Mn  Mn2  1  0.92119000  0.77328000  0.81243000  1.0
  Mn  Mn3  1  0.19395000  0.26134000  0.36542000  1.0
  Mn  Mn4  1  0.23483000  0.24741000  0.52553000  1.0
  Mn  Mn5  1  0.42119000  0.22672000  0.68757000  1.0
  Mn  Mn6  1  0.30605000  0.26134000  0.86542000  1.0
  Mn  Mn7  1  0.26517000  0.24741000  0.02553000  1.0
  Mn  Mn8  1  0.07881000  0.22672000  0.18757000  1.0
  Mn  Mn9  1  0.80605000  0.73866000  0.63458000  1.0
  Mn  Mn10  1  0.76517000  0.75259000  0.47447000  1.0
  Mn  Mn11  1  0.57881000  0.77328000  0.31243000  1.0
  H  H12  1  0.74480000  0.53780000  0.12780000  1.0
  H  H13  1  0.88520000  0.55290000  0.10960000  1.0
  H  H14  1  0.70940000  0.41870000  0.99420000  1.0
  H  H15  1  0.84980000  0.43950000  0.97800000  1.0
  H  H16  1  0.75620000  0.41690000  0.09090000  1.0
  H  H17  1  0.89810000  0.43140000  0.07410000  1.0
  H  H18  1  0.71320000  0.55850000  0.96350000  1.0
  H  H19  1  0.77230000  0.55870000  0.74680000  1.0
  H  H20  1  0.40490000  0.07020000  0.90850000  1.0
  H  H21  1  0.05650000  0.74030000  0.06790000  1.0
  H  H22  1  0.67390000  0.42980000  0.71640000  1.0
  H  H23  1  0.53840000  0.96690000  0.95070000  1.0
  H  H24  1  0.26650000  0.74930000  0.11410000  1.0
  H  H25  1  0.24480000  0.46220000  0.37220000  1.0
  H  H26  1  0.38520000  0.44710000  0.39040000  1.0
  H  H27  1  0.20940000  0.58130000  0.50580000  1.0
  H  H28  1  0.34980000  0.56050000  0.52200000  1.0
  H  H29  1  0.25620000  0.58310000  0.40910000  1.0
  H  H30  1  0.39810000  0.56860000  0.42590000  1.0
  H  H31  1  0.21320000  0.44150000  0.53650000  1.0
  H  H32  1  0.27230000  0.44130000  0.75320000  1.0
  H  H33  1  0.90490000  0.92980000  0.59150000  1.0
  H  H34  1  0.55650000  0.25970000  0.43210000  1.0
  H  H35  1  0.17390000  0.57020000  0.78360000  1.0
  H  H36  1  0.03840000  0.03310000  0.54930000  1.0
  H  H37  1  0.76650000  0.25070000  0.38590000  1.0
  H  H38  1  0.25520000  0.46220000  0.87220000  1.0
  H  H39  1  0.11480000  0.44710000  0.89040000  1.0
  H  H40  1  0.29060000  0.58130000  0.00580000  1.0
  H  H41  1  0.15020000  0.56050000  0.02200000  1.0
  H  H42  1  0.24380000  0.58310000  0.90910000  1.0
  H  H43  1  0.10190000  0.56860000  0.92590000  1.0
  H  H44  1  0.28680000  0.44150000  0.03650000  1.0
  H  H45  1  0.22770000  0.44130000  0.25320000  1.0
  H  H46  1  0.59510000  0.92980000  0.09150000  1.0
  H  H47  1  0.94350000  0.25970000  0.93210000  1.0
  H  H48  1  0.32610000  0.57020000  0.28360000  1.0
  H  H49  1  0.46160000  0.03310000  0.04930000  1.0
  H  H50  1  0.73350000  0.25070000  0.88590000  1.0
  H  H51  1  0.75520000  0.53780000  0.62780000  1.0
  H  H52  1  0.61480000  0.55290000  0.60960000  1.0
  H  H53  1  0.79060000  0.41870000  0.49420000  1.0
  H  H54  1  0.65020000  0.43950000  0.47800000  1.0
  H  H55  1  0.74380000  0.41690000  0.59090000  1.0
  H  H56  1  0.60190000  0.43140000  0.57410000  1.0
  H  H57  1  0.78680000  0.55850000  0.46350000  1.0
  H  H58  1  0.72770000  0.55870000  0.24680000  1.0
  H  H59  1  0.09510000  0.07020000  0.40850000  1.0
  H  H60  1  0.44350000  0.74030000  0.56790000  1.0
  H  H61  1  0.82610000  0.42980000  0.21640000  1.0
  H  H62  1  0.96160000  0.96690000  0.45070000  1.0
  H  H63  1  0.23350000  0.74930000  0.61410000  1.0
  C  C64  1  0.80410000  0.53480000  0.09400000  1.0
  C  C65  1  0.77920000  0.45470000  0.00420000  1.0
  C  C66  1  0.81340000  0.45180000  0.06960000  1.0
  C  C67  1  0.76350000  0.58670000  0.04690000  1.0
  C  C68  1  0.71130000  0.53420000  0.77020000  1.0
  C  C69  1  0.47160000  0.04580000  0.88710000  1.0
  C  C70  1  0.12940000  0.74910000  0.04570000  1.0
  C  C71  1  0.66940000  0.56670000  0.82450000  1.0
  C  C72  1  0.65420000  0.45980000  0.75230000  1.0
  C  C73  1  0.54780000  0.98560000  0.91130000  1.0
  C  C74  1  0.71210000  0.64290000  0.85630000  1.0
  C  C75  1  0.63680000  0.95780000  0.87110000  1.0
  C  C76  1  0.25090000  0.75390000  0.07240000  1.0
  C  C77  1  0.02480000  0.75460000  0.94080000  1.0
  C  C78  1  0.48480000  0.36400000  0.78760000  1.0
  C  C79  1  0.56720000  0.43710000  0.79350000  1.0
  C  C80  1  0.34190000  0.76590000  0.02990000  1.0
  C  C81  1  0.45280000  0.12570000  0.78780000  1.0
  C  C82  1  0.72860000  0.89140000  0.87828000  1.0
  C  C83  1  0.13190000  0.75900000  0.98340000  1.0
  C  C84  1  0.48040000  0.76810000  0.03920000  1.0
  C  C85  1  0.50540000  0.06500000  0.82890000  1.0
  C  C86  1  0.30410000  0.46520000  0.40600000  1.0
  C  C87  1  0.27920000  0.54530000  0.49580000  1.0
  C  C88  1  0.31340000  0.54820000  0.43040000  1.0
  C  C89  1  0.26350000  0.41330000  0.45310000  1.0
  C  C90  1  0.21130000  0.46580000  0.72980000  1.0
  C  C91  1  0.97160000  0.95420000  0.61290000  1.0
  C  C92  1  0.62940000  0.25090000  0.45430000  1.0
  C  C93  1  0.16940000  0.43330000  0.67550000  1.0
  C  C94  1  0.15420000  0.54020000  0.74770000  1.0
  C  C95  1  0.04780000  0.01440000  0.58870000  1.0
  C  C96  1  0.21210000  0.35710000  0.64370000  1.0
  C  C97  1  0.13680000  0.04220000  0.62890000  1.0
  C  C98  1  0.75090000  0.24610000  0.42760000  1.0
  C  C99  1  0.52480000  0.24540000  0.55920000  1.0
  C  C100  1  0.98480000  0.63600000  0.71240000  1.0
  C  C101  1  0.06720000  0.56290000  0.70650000  1.0
  C  C102  1  0.84190000  0.23410000  0.47010000  1.0
  C  C103  1  0.95280000  0.87430000  0.71220000  1.0
  C  C104  1  0.22860000  0.10860000  0.62172000  1.0
  C  C105  1  0.63190000  0.24100000  0.51660000  1.0
  C  C106  1  0.98040000  0.23190000  0.46080000  1.0
  C  C107  1  0.00540000  0.93500000  0.67110000  1.0
  C  C108  1  0.19590000  0.46520000  0.90600000  1.0
  C  C109  1  0.22080000  0.54530000  0.99580000  1.0
  C  C110  1  0.18660000  0.54820000  0.93040000  1.0
  C  C111  1  0.23650000  0.41330000  0.95310000  1.0
  C  C112  1  0.28870000  0.46580000  0.22980000  1.0
  C  C113  1  0.52840000  0.95420000  0.11290000  1.0
  C  C114  1  0.87060000  0.25090000  0.95430000  1.0
  C  C115  1  0.33060000  0.43330000  0.17550000  1.0
  C  C116  1  0.34580000  0.54020000  0.24770000  1.0
  C  C117  1  0.45220000  0.01440000  0.08870000  1.0
  C  C118  1  0.28790000  0.35710000  0.14370000  1.0
  C  C119  1  0.36320000  0.04220000  0.12890000  1.0
  C  C120  1  0.74910000  0.24610000  0.92760000  1.0
  C  C121  1  0.97520000  0.24540000  0.05920000  1.0
  C  C122  1  0.51520000  0.63600000  0.21240000  1.0
  C  C123  1  0.43280000  0.56290000  0.20650000  1.0
  C  C124  1  0.65810000  0.23410000  0.97010000  1.0
  C  C125  1  0.54720000  0.87430000  0.21220000  1.0
  C  C126  1  0.27140000  0.10860000  0.12172000  1.0
  C  C127  1  0.86810000  0.24100000  0.01660000  1.0
  C  C128  1  0.51960000  0.23190000  0.96080000  1.0
  C  C129  1  0.49460000  0.93500000  0.17110000  1.0
  C  C130  1  0.69590000  0.53480000  0.59400000  1.0
  C  C131  1  0.72080000  0.45470000  0.50420000  1.0
  C  C132  1  0.68660000  0.45180000  0.56960000  1.0
  C  C133  1  0.73650000  0.58670000  0.54690000  1.0
  C  C134  1  0.78870000  0.53420000  0.27020000  1.0
  C  C135  1  0.02840000  0.04580000  0.38710000  1.0
  C  C136  1  0.37060000  0.74910000  0.54570000  1.0
  C  C137  1  0.83060000  0.56670000  0.32450000  1.0
  C  C138  1  0.84580000  0.45980000  0.25230000  1.0
  C  C139  1  0.95220000  0.98560000  0.41130000  1.0
  C  C140  1  0.78790000  0.64290000  0.35630000  1.0
  C  C141  1  0.86320000  0.95780000  0.37110000  1.0
  C  C142  1  0.24910000  0.75390000  0.57240000  1.0
  C  C143  1  0.47520000  0.75460000  0.44080000  1.0
  C  C144  1  0.01520000  0.36400000  0.28760000  1.0
  C  C145  1  0.93280000  0.43710000  0.29350000  1.0
  C  C146  1  0.15810000  0.76590000  0.52990000  1.0
  C  C147  1  0.04720000  0.12570000  0.28780000  1.0
  C  C148  1  0.77140000  0.89140000  0.37828000  1.0
  C  C149  1  0.36810000  0.75900000  0.48340000  1.0
  C  C150  1  0.01960000  0.76810000  0.53920000  1.0
  C  C151  1  0.99460000  0.06500000  0.32890000  1.0
  S  S152  1  0.55489000  0.50644000  0.85428000  1.0
  S  S153  1  0.63084000  0.00783000  0.80347000  1.0
  S  S154  1  0.28168000  0.77289000  0.95739000  1.0
  S  S155  1  0.05489000  0.49356000  0.64572000  1.0
  S  S156  1  0.13084000  0.99217000  0.69653000  1.0
  S  S157  1  0.78168000  0.22711000  0.54261000  1.0
  S  S158  1  0.44511000  0.49356000  0.14572000  1.0
  S  S159  1  0.36916000  0.99217000  0.19653000  1.0
  S  S160  1  0.71832000  0.22711000  0.04261000  1.0
  S  S161  1  0.94511000  0.50644000  0.35428000  1.0
  S  S162  1  0.86916000  0.00783000  0.30347000  1.0
  S  S163  1  0.21832000  0.77289000  0.45739000  1.0
  N  N164  1  0.74360000  0.54060000  0.99690000  1.0
  N  N165  1  0.24360000  0.45940000  0.50310000  1.0
  N  N166  1  0.25640000  0.45940000  0.00310000  1.0
  N  N167  1  0.75640000  0.54060000  0.49690000  1.0
  O  O168  1  0.67350000  0.65810000  0.90989000  1.0
  O  O169  1  0.78560000  0.68550000  0.82700000  1.0
  O  O170  1  0.54560000  0.77970000  0.99309000  1.0
  O  O171  1  0.92440000  0.72730000  0.96094000  1.0
  O  O172  1  0.39430000  0.36060000  0.82404000  1.0
  O  O173  1  0.35150000  0.16300000  0.80278000  1.0
  O  O174  1  0.04440000  0.77690000  0.88693000  1.0
  O  O175  1  0.51070000  0.13570000  0.73869000  1.0
  O  O176  1  0.78060000  0.86390000  0.83057000  1.0
  O  O177  1  0.74610000  0.86770000  0.93205000  1.0
  O  O178  1  0.51780000  0.75660000  0.09259000  1.0
  O  O179  1  0.51400000  0.31350000  0.74518000  1.0
  O  O180  1  0.74110000  0.65977000  0.05025000  1.0
  O  O181  1  0.17350000  0.34190000  0.59011000  1.0
  O  O182  1  0.28560000  0.31450000  0.67300000  1.0
  O  O183  1  0.04560000  0.22030000  0.50691000  1.0
  O  O184  1  0.42440000  0.27270000  0.53906000  1.0
  O  O185  1  0.89430000  0.63940000  0.67596000  1.0
  O  O186  1  0.85150000  0.83700000  0.69722000  1.0
  O  O187  1  0.54440000  0.22310000  0.61307000  1.0
  O  O188  1  0.01070000  0.86430000  0.76131000  1.0
  O  O189  1  0.28060000  0.13610000  0.66943000  1.0
  O  O190  1  0.24610000  0.13230000  0.56795000  1.0
  O  O191  1  0.01780000  0.24340000  0.40741000  1.0
  O  O192  1  0.01400000  0.68650000  0.75482000  1.0
  O  O193  1  0.24110000  0.34023000  0.44975000  1.0
  O  O194  1  0.32650000  0.34190000  0.09011000  1.0
  O  O195  1  0.21440000  0.31450000  0.17300000  1.0
  O  O196  1  0.45440000  0.22030000  0.00691000  1.0
  O  O197  1  0.07560000  0.27270000  0.03906000  1.0
  O  O198  1  0.60570000  0.63940000  0.17596000  1.0
  O  O199  1  0.64850000  0.83700000  0.19722000  1.0
  O  O200  1  0.95560000  0.22310000  0.11307000  1.0
  O  O201  1  0.48930000  0.86430000  0.26131000  1.0
  O  O202  1  0.21940000  0.13610000  0.16943000  1.0
  O  O203  1  0.25390000  0.13230000  0.06795000  1.0
  O  O204  1  0.48220000  0.24340000  0.90741000  1.0
  O  O205  1  0.48600000  0.68650000  0.25482000  1.0
  O  O206  1  0.25890000  0.34023000  0.94975000  1.0
  O  O207  1  0.82650000  0.65810000  0.40989000  1.0
  O  O208  1  0.71440000  0.68550000  0.32700000  1.0
  O  O209  1  0.95440000  0.77970000  0.49309000  1.0
  O  O210  1  0.57560000  0.72730000  0.46094000  1.0
  O  O211  1  0.10570000  0.36060000  0.32404000  1.0
  O  O212  1  0.14850000  0.16300000  0.30278000  1.0
  O  O213  1  0.45560000  0.77690000  0.38693000  1.0
  O  O214  1  0.98930000  0.13570000  0.23869000  1.0
  O  O215  1  0.71940000  0.86390000  0.33057000  1.0
  O  O216  1  0.75390000  0.86770000  0.43205000  1.0
  O  O217  1  0.98220000  0.75660000  0.59259000  1.0
  O  O218  1  0.98600000  0.31350000  0.24518000  1.0
  O  O219  1  0.75890000  0.65977000  0.55025000  1.0
