# generated using pymatgen
data_MnH2(CO2)2
_symmetry_space_group_name_H-M   'P 1'
_cell_length_a   11.69760000
_cell_length_b   10.24550000
_cell_length_c   15.17240000
_cell_angle_alpha   90.00000000
_cell_angle_beta   91.62100000
_cell_angle_gamma   90.00000000
_symmetry_Int_Tables_number   1
_chemical_formula_structural   MnH2(CO2)2
_chemical_formula_sum   'Mn12 H24 C24 O48'
_cell_volume   1817.65047663
_cell_formula_units_Z   12
loop_
 _symmetry_equiv_pos_site_id
 _symmetry_equiv_pos_as_xyz
  1  'x, y, z'
loop_
 _atom_site_type_symbol
 _atom_site_label
 _atom_site_symmetry_multiplicity
 _atom_site_fract_x
 _atom_site_fract_y
 _atom_site_fract_z
 _atom_site_occupancy
  Mn  Mn0  1  0.75606000  0.42390000  0.13133000  1.0
  Mn  Mn1  1  0.73955000  0.61325000  0.30894000  1.0
  Mn  Mn2  1  0.74394000  0.92390000  0.36867000  1.0
  Mn  Mn3  1  0.76045000  0.11325000  0.19106000  1.0
  Mn  Mn4  1  0.24394000  0.57610000  0.86867000  1.0
  Mn  Mn5  1  0.26045000  0.38675000  0.69106000  1.0
  Mn  Mn6  1  0.25606000  0.07610000  0.63133000  1.0
  Mn  Mn7  1  0.23955000  0.88675000  0.80894000  1.0
  Mn  Mn8  1  0.50000000  0.50000000  0.00000000  1.0
  Mn  Mn9  1  0.00000000  0.00000000  0.50000000  1.0
  Mn  Mn10  1  0.00000000  0.50000000  0.00000000  1.0
  Mn  Mn11  1  0.50000000  0.00000000  0.50000000  1.0
  H  H12  1  0.69870000  0.64940000  0.92760000  1.0
  H  H13  1  0.44260000  0.87240000  0.94910000  1.0
  H  H14  1  0.47960000  0.54310000  0.25630000  1.0
  H  H15  1  0.84920000  0.26560000  0.36670000  1.0
  H  H16  1  0.96330000  0.71060000  0.21520000  1.0
  H  H17  1  0.49330000  0.71430000  0.46520000  1.0
  H  H18  1  0.80130000  0.14940000  0.57240000  1.0
  H  H19  1  0.05740000  0.37240000  0.55090000  1.0
  H  H20  1  0.02040000  0.04310000  0.24370000  1.0
  H  H21  1  0.65080000  0.76560000  0.13330000  1.0
  H  H22  1  0.53670000  0.21060000  0.28480000  1.0
  H  H23  1  0.00670000  0.21430000  0.03480000  1.0
  H  H24  1  0.30130000  0.35060000  0.07240000  1.0
  H  H25  1  0.55740000  0.12760000  0.05090000  1.0
  H  H26  1  0.52040000  0.45690000  0.74370000  1.0
  H  H27  1  0.15080000  0.73440000  0.63330000  1.0
  H  H28  1  0.03670000  0.28940000  0.78480000  1.0
  H  H29  1  0.50670000  0.28570000  0.53480000  1.0
  H  H30  1  0.19870000  0.85060000  0.42760000  1.0
  H  H31  1  0.94260000  0.62760000  0.44910000  1.0
  H  H32  1  0.97960000  0.95690000  0.75630000  1.0
  H  H33  1  0.34920000  0.23440000  0.86670000  1.0
  H  H34  1  0.46330000  0.78940000  0.71520000  1.0
  H  H35  1  0.99330000  0.78570000  0.96520000  1.0
  C  C36  1  0.74120000  0.59570000  0.96550000  1.0
  C  C37  1  0.42320000  0.78460000  0.94470000  1.0
  C  C38  1  0.51920000  0.52230000  0.20590000  1.0
  C  C39  1  0.82220000  0.33270000  0.33050000  1.0
  C  C40  1  0.94100000  0.64420000  0.17660000  1.0
  C  C41  1  0.55860000  0.72970000  0.43310000  1.0
  C  C42  1  0.75880000  0.09570000  0.53450000  1.0
  C  C43  1  0.07680000  0.28460000  0.55530000  1.0
  C  C44  1  0.98080000  0.02230000  0.29410000  1.0
  C  C45  1  0.67780000  0.83270000  0.16950000  1.0
  C  C46  1  0.55900000  0.14420000  0.32340000  1.0
  C  C47  1  0.94140000  0.22970000  0.06690000  1.0
  C  C48  1  0.25880000  0.40430000  0.03450000  1.0
  C  C49  1  0.57680000  0.21540000  0.05530000  1.0
  C  C50  1  0.48080000  0.47770000  0.79410000  1.0
  C  C51  1  0.17780000  0.66730000  0.66950000  1.0
  C  C52  1  0.05900000  0.35580000  0.82340000  1.0
  C  C53  1  0.44140000  0.27030000  0.56690000  1.0
  C  C54  1  0.24120000  0.90430000  0.46550000  1.0
  C  C55  1  0.92320000  0.71540000  0.44470000  1.0
  C  C56  1  0.01920000  0.97770000  0.70590000  1.0
  C  C57  1  0.32220000  0.16730000  0.83050000  1.0
  C  C58  1  0.44100000  0.85580000  0.67660000  1.0
  C  C59  1  0.05860000  0.77030000  0.93310000  1.0
  O  O60  1  0.68624000  0.52930000  0.02062000  1.0
  O  O61  1  0.84470000  0.59570000  0.95743000  1.0
  O  O62  1  0.47750000  0.70770000  0.99252000  1.0
  O  O63  1  0.34360000  0.75470000  0.89034000  1.0
  O  O64  1  0.62650000  0.51280000  0.21479000  1.0
  O  O65  1  0.46220000  0.50740000  0.13880000  1.0
  O  O66  1  0.80780000  0.44060000  0.36515000  1.0
  O  O67  1  0.80340000  0.30570000  0.25008000  1.0
  O  O68  1  0.00280000  0.62430000  0.11486000  1.0
  O  O69  1  0.85003000  0.58460000  0.19392000  1.0
  O  O70  1  0.59556000  0.84480000  0.43272000  1.0
  O  O71  1  0.60000000  0.63480000  0.39525000  1.0
  O  O72  1  0.81376000  0.02930000  0.47938000  1.0
  O  O73  1  0.65530000  0.09570000  0.54257000  1.0
  O  O74  1  0.02250000  0.20770000  0.50748000  1.0
  O  O75  1  0.15640000  0.25470000  0.60966000  1.0
  O  O76  1  0.87350000  0.01280000  0.28521000  1.0
  O  O77  1  0.03780000  0.00740000  0.36120000  1.0
  O  O78  1  0.69220000  0.94060000  0.13485000  1.0
  O  O79  1  0.69660000  0.80570000  0.24992000  1.0
  O  O80  1  0.49720000  0.12430000  0.38514000  1.0
  O  O81  1  0.64997000  0.08460000  0.30608000  1.0
  O  O82  1  0.90444000  0.34480000  0.06728000  1.0
  O  O83  1  0.90000000  0.13480000  0.10475000  1.0
  O  O84  1  0.31376000  0.47070000  0.97938000  1.0
  O  O85  1  0.15530000  0.40430000  0.04257000  1.0
  O  O86  1  0.52250000  0.29230000  0.00748000  1.0
  O  O87  1  0.65640000  0.24530000  0.10966000  1.0
  O  O88  1  0.37350000  0.48720000  0.78521000  1.0
  O  O89  1  0.53780000  0.49260000  0.86120000  1.0
  O  O90  1  0.19220000  0.55940000  0.63485000  1.0
  O  O91  1  0.19660000  0.69430000  0.74992000  1.0
  O  O92  1  0.99720000  0.37570000  0.88514000  1.0
  O  O93  1  0.14997000  0.41540000  0.80608000  1.0
  O  O94  1  0.40444000  0.15520000  0.56728000  1.0
  O  O95  1  0.40000000  0.36520000  0.60475000  1.0
  O  O96  1  0.18624000  0.97070000  0.52062000  1.0
  O  O97  1  0.34470000  0.90430000  0.45743000  1.0
  O  O98  1  0.97750000  0.79230000  0.49252000  1.0
  O  O99  1  0.84360000  0.74530000  0.39034000  1.0
  O  O100  1  0.12650000  0.98720000  0.71479000  1.0
  O  O101  1  0.96220000  0.99260000  0.63880000  1.0
  O  O102  1  0.30780000  0.05940000  0.86515000  1.0
  O  O103  1  0.30340000  0.19430000  0.75008000  1.0
  O  O104  1  0.50280000  0.87570000  0.61486000  1.0
  O  O105  1  0.35003000  0.91540000  0.69392000  1.0
  O  O106  1  0.09556000  0.65520000  0.93272000  1.0
  O  O107  1  0.10000000  0.86520000  0.89525000  1.0
