# generated using pymatgen
data_MnH3(C3O2)3
_symmetry_space_group_name_H-M   'P 1'
_cell_length_a   12.63580000
_cell_length_b   15.28970000
_cell_length_c   16.41830000
_cell_angle_alpha   90.00000000
_cell_angle_beta   90.00000000
_cell_angle_gamma   90.00000000
_symmetry_Int_Tables_number   1
_chemical_formula_structural   MnH3(C3O2)3
_chemical_formula_sum   'Mn8 H24 C72 O48'
_cell_volume   3171.97601258
_cell_formula_units_Z   8
loop_
 _symmetry_equiv_pos_site_id
 _symmetry_equiv_pos_as_xyz
  1  'x, y, z'
loop_
 _atom_site_type_symbol
 _atom_site_label
 _atom_site_symmetry_multiplicity
 _atom_site_fract_x
 _atom_site_fract_y
 _atom_site_fract_z
 _atom_site_occupancy
  Mn  Mn0  1  0.99209000  0.91074000  0.60135000  1.0
  Mn  Mn1  1  0.00791000  0.08926000  0.39865000  1.0
  Mn  Mn2  1  0.50791000  0.41074000  0.60135000  1.0
  Mn  Mn3  1  0.50791000  0.08926000  0.10135000  1.0
  Mn  Mn4  1  0.49209000  0.58926000  0.39865000  1.0
  Mn  Mn5  1  0.00791000  0.41074000  0.89865000  1.0
  Mn  Mn6  1  0.99209000  0.58926000  0.10135000  1.0
  Mn  Mn7  1  0.49209000  0.91074000  0.89865000  1.0
  H  H8  1  0.74650000  0.20140000  0.55260000  1.0
  H  H9  1  0.52290000  0.13990000  0.72350000  1.0
  H  H10  1  0.24650000  0.29860000  0.44740000  1.0
  H  H11  1  0.74650000  0.02810000  0.16400000  1.0
  H  H12  1  0.75350000  0.79860000  0.05260000  1.0
  H  H13  1  0.74650000  0.29860000  0.05260000  1.0
  H  H14  1  0.02290000  0.36010000  0.27650000  1.0
  H  H15  1  0.25350000  0.97190000  0.83600000  1.0
  H  H16  1  0.97710000  0.86010000  0.22350000  1.0
  H  H17  1  0.74650000  0.47190000  0.66400000  1.0
  H  H18  1  0.25350000  0.52810000  0.33600000  1.0
  H  H19  1  0.25350000  0.70140000  0.94740000  1.0
  H  H20  1  0.02290000  0.13990000  0.77650000  1.0
  H  H21  1  0.47710000  0.86010000  0.27650000  1.0
  H  H22  1  0.24650000  0.47190000  0.83600000  1.0
  H  H23  1  0.25350000  0.79860000  0.44740000  1.0
  H  H24  1  0.52290000  0.36010000  0.22350000  1.0
  H  H25  1  0.97710000  0.63990000  0.72350000  1.0
  H  H26  1  0.24650000  0.20140000  0.94740000  1.0
  H  H27  1  0.47710000  0.63990000  0.77650000  1.0
  H  H28  1  0.24650000  0.02810000  0.33600000  1.0
  H  H29  1  0.75350000  0.70140000  0.55260000  1.0
  H  H30  1  0.75350000  0.52810000  0.16400000  1.0
  H  H31  1  0.75350000  0.97190000  0.66400000  1.0
  C  C32  1  0.36920000  0.95210000  0.29590000  1.0
  C  C33  1  0.85810000  0.06080000  0.54160000  1.0
  C  C34  1  0.08450000  0.37570000  0.30620000  1.0
  C  C35  1  0.72090000  0.02730000  0.65630000  1.0
  C  C36  1  0.71910000  0.16010000  0.59030000  1.0
  C  C37  1  0.23560000  0.58390000  0.90160000  1.0
  C  C38  1  0.41550000  0.87570000  0.30620000  1.0
  C  C39  1  0.14190000  0.56080000  0.95840000  1.0
  C  C40  1  0.73560000  0.91610000  0.09840000  1.0
  C  C41  1  0.58450000  0.37570000  0.19380000  1.0
  C  C42  1  0.21910000  0.16010000  0.90970000  1.0
  C  C43  1  0.08450000  0.12430000  0.80620000  1.0
  C  C44  1  0.91740000  0.76490000  0.62860000  1.0
  C  C45  1  0.37020000  0.81890000  0.36260000  1.0
  C  C46  1  0.64190000  0.56080000  0.54160000  1.0
  C  C47  1  0.26440000  0.41610000  0.40160000  1.0
  C  C48  1  0.91590000  0.00970000  0.27070000  1.0
  C  C49  1  0.28090000  0.66010000  0.90970000  1.0
  C  C50  1  0.87020000  0.68110000  0.63740000  1.0
  C  C51  1  0.27910000  0.52730000  0.84370000  1.0
  C  C52  1  0.08410000  0.50970000  0.22930000  1.0
  C  C53  1  0.78090000  0.83990000  0.09030000  1.0
  C  C54  1  0.41550000  0.62430000  0.80620000  1.0
  C  C55  1  0.58260000  0.23510000  0.12860000  1.0
  C  C56  1  0.28090000  0.83990000  0.40970000  1.0
  C  C57  1  0.08260000  0.23510000  0.37140000  1.0
  C  C58  1  0.91590000  0.49030000  0.77070000  1.0
  C  C59  1  0.77910000  0.52730000  0.65630000  1.0
  C  C60  1  0.58260000  0.26490000  0.62860000  1.0
  C  C61  1  0.41740000  0.73510000  0.37140000  1.0
  C  C62  1  0.58410000  0.99030000  0.77070000  1.0
  C  C63  1  0.78090000  0.66010000  0.59030000  1.0
  C  C64  1  0.64190000  0.93920000  0.04160000  1.0
  C  C65  1  0.87020000  0.81890000  0.13740000  1.0
  C  C66  1  0.91740000  0.73510000  0.12860000  1.0
  C  C67  1  0.13080000  0.45210000  0.29590000  1.0
  C  C68  1  0.58410000  0.50970000  0.27070000  1.0
  C  C69  1  0.76440000  0.41610000  0.09840000  1.0
  C  C70  1  0.63080000  0.45210000  0.20410000  1.0
  C  C71  1  0.12980000  0.18110000  0.86260000  1.0
  C  C72  1  0.35810000  0.43920000  0.45840000  1.0
  C  C73  1  0.86920000  0.54790000  0.70410000  1.0
  C  C74  1  0.23560000  0.91610000  0.40160000  1.0
  C  C75  1  0.72090000  0.47270000  0.15630000  1.0
  C  C76  1  0.85810000  0.43920000  0.04160000  1.0
  C  C77  1  0.91550000  0.87570000  0.19380000  1.0
  C  C78  1  0.08410000  0.99030000  0.72930000  1.0
  C  C79  1  0.41740000  0.76490000  0.87140000  1.0
  C  C80  1  0.12980000  0.31890000  0.36260000  1.0
  C  C81  1  0.27910000  0.97270000  0.34370000  1.0
  C  C82  1  0.22090000  0.02730000  0.84370000  1.0
  C  C83  1  0.13080000  0.04790000  0.79590000  1.0
  C  C84  1  0.21910000  0.33990000  0.40970000  1.0
  C  C85  1  0.71910000  0.33990000  0.09030000  1.0
  C  C86  1  0.76440000  0.08390000  0.59840000  1.0
  C  C87  1  0.37020000  0.68110000  0.86260000  1.0
  C  C88  1  0.58450000  0.12430000  0.69380000  1.0
  C  C89  1  0.08260000  0.26490000  0.87140000  1.0
  C  C90  1  0.14190000  0.93920000  0.45840000  1.0
  C  C91  1  0.22090000  0.47270000  0.34370000  1.0
  C  C92  1  0.35810000  0.06080000  0.95840000  1.0
  C  C93  1  0.36920000  0.54790000  0.79590000  1.0
  C  C94  1  0.86920000  0.95210000  0.20410000  1.0
  C  C95  1  0.91550000  0.62430000  0.69380000  1.0
  C  C96  1  0.73560000  0.58390000  0.59840000  1.0
  C  C97  1  0.41590000  0.00970000  0.22930000  1.0
  C  C98  1  0.62980000  0.31890000  0.13740000  1.0
  C  C99  1  0.26440000  0.08390000  0.90160000  1.0
  C  C100  1  0.41590000  0.49030000  0.72930000  1.0
  C  C101  1  0.62980000  0.18110000  0.63740000  1.0
  C  C102  1  0.77910000  0.97270000  0.15630000  1.0
  C  C103  1  0.63080000  0.04790000  0.70410000  1.0
  O  O104  1  0.13250000  0.18130000  0.41150000  1.0
  O  O105  1  0.99070000  0.49980000  0.20520000  1.0
  O  O106  1  0.86750000  0.81870000  0.58850000  1.0
  O  O107  1  0.49070000  0.49980000  0.29480000  1.0
  O  O108  1  0.11830000  0.01320000  0.46700000  1.0
  O  O109  1  0.63960000  0.93610000  0.80360000  1.0
  O  O110  1  0.49330000  0.22070000  0.16190000  1.0
  O  O111  1  0.61830000  0.01320000  0.03300000  1.0
  O  O112  1  0.13960000  0.56390000  0.19640000  1.0
  O  O113  1  0.88170000  0.98680000  0.53300000  1.0
  O  O114  1  0.13960000  0.93610000  0.69640000  1.0
  O  O115  1  0.11830000  0.48680000  0.96700000  1.0
  O  O116  1  0.38170000  0.98680000  0.96700000  1.0
  O  O117  1  0.86750000  0.68130000  0.08850000  1.0
  O  O118  1  0.90610000  0.11880000  0.50390000  1.0
  O  O119  1  0.59390000  0.88120000  0.00390000  1.0
  O  O120  1  0.13250000  0.31870000  0.91150000  1.0
  O  O121  1  0.88170000  0.51320000  0.03300000  1.0
  O  O122  1  0.09390000  0.88120000  0.49610000  1.0
  O  O123  1  0.99330000  0.22070000  0.33810000  1.0
  O  O124  1  0.63250000  0.18130000  0.08850000  1.0
  O  O125  1  0.36040000  0.06390000  0.19640000  1.0
  O  O126  1  0.50670000  0.72070000  0.33810000  1.0
  O  O127  1  0.99330000  0.27930000  0.83810000  1.0
  O  O128  1  0.00930000  0.99980000  0.29480000  1.0
  O  O129  1  0.50670000  0.77930000  0.83810000  1.0
  O  O130  1  0.49330000  0.27930000  0.66190000  1.0
  O  O131  1  0.36750000  0.81870000  0.91150000  1.0
  O  O132  1  0.09390000  0.61880000  0.99610000  1.0
  O  O133  1  0.63250000  0.31870000  0.58850000  1.0
  O  O134  1  0.40610000  0.38120000  0.49610000  1.0
  O  O135  1  0.40610000  0.11880000  0.99610000  1.0
  O  O136  1  0.38170000  0.51320000  0.46700000  1.0
  O  O137  1  0.49070000  0.00020000  0.79480000  1.0
  O  O138  1  0.59390000  0.61880000  0.50390000  1.0
  O  O139  1  0.86040000  0.06390000  0.30360000  1.0
  O  O140  1  0.50930000  0.50020000  0.70520000  1.0
  O  O141  1  0.61830000  0.48680000  0.53300000  1.0
  O  O142  1  0.36750000  0.68130000  0.41150000  1.0
  O  O143  1  0.86040000  0.43610000  0.80360000  1.0
  O  O144  1  0.00670000  0.72070000  0.16190000  1.0
  O  O145  1  0.50930000  0.99980000  0.20520000  1.0
  O  O146  1  0.99070000  0.00020000  0.70520000  1.0
  O  O147  1  0.90610000  0.38120000  0.00390000  1.0
  O  O148  1  0.00930000  0.50020000  0.79480000  1.0
  O  O149  1  0.00670000  0.77930000  0.66190000  1.0
  O  O150  1  0.36040000  0.43610000  0.69640000  1.0
  O  O151  1  0.63960000  0.56390000  0.30360000  1.0
