# generated using pymatgen
data_AlH5C8O5
_symmetry_space_group_name_H-M   'P 1'
_cell_length_a   6.62180000
_cell_length_b   16.21480000
_cell_length_c   13.58860000
_cell_angle_alpha   90.00000000
_cell_angle_beta   90.00000000
_cell_angle_gamma   90.00000000
_symmetry_Int_Tables_number   1
_chemical_formula_structural   AlH5C8O5
_chemical_formula_sum   'Al4 H20 C32 O20'
_cell_volume   1459.02378065
_cell_formula_units_Z   4
loop_
 _symmetry_equiv_pos_site_id
 _symmetry_equiv_pos_as_xyz
  1  'x, y, z'
loop_
 _atom_site_type_symbol
 _atom_site_label
 _atom_site_symmetry_multiplicity
 _atom_site_fract_x
 _atom_site_fract_y
 _atom_site_fract_z
 _atom_site_occupancy
  Al  Al0  1  0.24389000  0.25169000  0.75134000  1.0
  Al  Al1  1  0.74409000  0.25175000  0.75206000  1.0
  Al  Al2  1  0.74585000  0.75182000  0.25153000  1.0
  Al  Al3  1  0.24601000  0.75185000  0.25188000  1.0
  H  H4  1  0.67034000  0.05881000  0.94342000  1.0
  H  H5  1  0.17122000  0.55915000  0.44260000  1.0
  H  H6  1  0.32034000  0.44244000  0.94536000  1.0
  H  H7  1  0.82117000  0.94268000  0.44620000  1.0
  H  H8  1  0.32122000  0.56036000  0.05813000  1.0
  H  H9  1  0.82025000  0.06116000  0.55813000  1.0
  H  H10  1  0.67135000  0.94166000  0.05713000  1.0
  H  H11  1  0.17027000  0.44223000  0.55671000  1.0
  H  H12  1  0.32106000  0.94220000  0.05668000  1.0
  H  H13  1  0.81992000  0.44216000  0.55792000  1.0
  H  H14  1  0.67154000  0.56074000  0.05862000  1.0
  H  H15  1  0.17056000  0.06060000  0.55765000  1.0
  H  H16  1  0.67064000  0.44295000  0.94588000  1.0
  H  H17  1  0.17145000  0.94226000  0.44575000  1.0
  H  H18  1  0.32008000  0.05940000  0.94292000  1.0
  H  H19  1  0.82092000  0.55909000  0.44375000  1.0
  H  H20  1  0.49329000  0.25148000  0.86792000  1.0
  H  H21  1  0.99328000  0.25295000  0.63556000  1.0
  H  H22  1  0.99561000  0.75342000  0.36783000  1.0
  H  H23  1  0.49563000  0.75467000  0.13555000  1.0
  C  C24  1  0.81356000  0.03438000  0.96783000  1.0
  C  C25  1  0.31405000  0.53464000  0.46750000  1.0
  C  C26  1  0.17751000  0.46740000  0.96962000  1.0
  C  C27  1  0.67797000  0.96756000  0.47005000  1.0
  C  C28  1  0.17802000  0.53555000  0.03414000  1.0
  C  C29  1  0.67745000  0.03601000  0.53410000  1.0
  C  C30  1  0.81416000  0.96665000  0.03287000  1.0
  C  C31  1  0.31346000  0.46700000  0.53273000  1.0
  C  C32  1  0.17786000  0.96695000  0.03264000  1.0
  C  C33  1  0.67714000  0.46697000  0.53339000  1.0
  C  C34  1  0.81435000  0.53577000  0.03441000  1.0
  C  C35  1  0.31375000  0.03573000  0.53383000  1.0
  C  C36  1  0.81384000  0.46766000  0.96991000  1.0
  C  C37  1  0.31427000  0.96732000  0.46981000  1.0
  C  C38  1  0.17728000  0.03469000  0.96755000  1.0
  C  C39  1  0.67773000  0.53460000  0.46811000  1.0
  C  C40  1  0.99625000  0.93167000  0.06659000  1.0
  C  C41  1  0.99656000  0.86012000  0.13765000  1.0
  C  C42  1  0.49502000  0.43188000  0.56694000  1.0
  C  C43  1  0.49444000  0.36024000  0.63793000  1.0
  C  C44  1  0.99639000  0.57119000  0.06756000  1.0
  C  C45  1  0.99648000  0.64336000  0.13781000  1.0
  C  C46  1  0.49528000  0.07153000  0.56703000  1.0
  C  C47  1  0.49452000  0.14369000  0.63723000  1.0
  C  C48  1  0.99536000  0.43201000  0.93645000  1.0
  C  C49  1  0.99456000  0.35995000  0.86603000  1.0
  C  C50  1  0.49633000  0.93181000  0.43681000  1.0
  C  C51  1  0.49645000  0.85973000  0.36646000  1.0
  C  C52  1  0.99511000  0.07012000  0.93451000  1.0
  C  C53  1  0.99449000  0.14262000  0.86478000  1.0
  C  C54  1  0.49613000  0.57017000  0.43453000  1.0
  C  C55  1  0.49649000  0.64266000  0.36475000  1.0
  O  O56  1  0.16601000  0.17184000  0.83543000  1.0
  O  O57  1  0.66825000  0.67180000  0.33554000  1.0
  O  O58  1  0.82258000  0.33077000  0.83719000  1.0
  O  O59  1  0.32478000  0.83063000  0.33721000  1.0
  O  O60  1  0.82463000  0.67255000  0.16686000  1.0
  O  O61  1  0.32248000  0.17285000  0.66604000  1.0
  O  O62  1  0.16809000  0.83140000  0.16746000  1.0
  O  O63  1  0.66579000  0.33132000  0.66775000  1.0
  O  O64  1  0.82498000  0.83086000  0.16671000  1.0
  O  O65  1  0.32265000  0.33102000  0.66679000  1.0
  O  O66  1  0.16820000  0.67251000  0.16704000  1.0
  O  O67  1  0.66595000  0.17272000  0.66692000  1.0
  O  O68  1  0.16590000  0.33088000  0.83633000  1.0
  O  O69  1  0.66801000  0.83070000  0.33700000  1.0
  O  O70  1  0.82251000  0.17213000  0.83641000  1.0
  O  O71  1  0.32472000  0.67232000  0.33626000  1.0
  O  O72  1  0.99362000  0.25219000  0.69900000  1.0
  O  O73  1  0.49579000  0.75299000  0.19897000  1.0
  O  O74  1  0.99578000  0.75251000  0.30440000  1.0
  O  O75  1  0.49363000  0.25163000  0.80446000  1.0
