# generated using pymatgen
data_Zr3H28(C20O7)2
_symmetry_space_group_name_H-M   'P 1'
_cell_length_a   16.23260000
_cell_length_b   33.00240000
_cell_length_c   35.75030000
_cell_angle_alpha   90.00000000
_cell_angle_beta   90.00000000
_cell_angle_gamma   90.00000000
_symmetry_Int_Tables_number   1
_chemical_formula_structural   Zr3H28(C20O7)2
_chemical_formula_sum   'Zr24 H224 C320 O112'
_cell_volume   19151.96332151
_cell_formula_units_Z   8
loop_
 _symmetry_equiv_pos_site_id
 _symmetry_equiv_pos_as_xyz
  1  'x, y, z'
loop_
 _atom_site_type_symbol
 _atom_site_label
 _atom_site_symmetry_multiplicity
 _atom_site_fract_x
 _atom_site_fract_y
 _atom_site_fract_z
 _atom_site_occupancy
  Zr  Zr0  1  0.50000000  0.50000000  0.43188000  1.0
  Zr  Zr1  1  0.50000000  0.00000000  0.93188000  1.0
  Zr  Zr2  1  0.00000000  0.50000000  0.93188000  1.0
  Zr  Zr3  1  0.00000000  0.00000000  0.43188000  1.0
  Zr  Zr4  1  0.50000000  0.50000000  0.56812000  1.0
  Zr  Zr5  1  0.50000000  0.00000000  0.06812000  1.0
  Zr  Zr6  1  0.00000000  0.50000000  0.06812000  1.0
  Zr  Zr7  1  0.00000000  0.00000000  0.56812000  1.0
  Zr  Zr8  1  0.60953000  0.55389000  0.50000000  1.0
  Zr  Zr9  1  0.60953000  0.05389000  0.00000000  1.0
  Zr  Zr10  1  0.10953000  0.55389000  0.00000000  1.0
  Zr  Zr11  1  0.10953000  0.05389000  0.50000000  1.0
  Zr  Zr12  1  0.39047000  0.44611000  0.50000000  1.0
  Zr  Zr13  1  0.39047000  0.94611000  0.00000000  1.0
  Zr  Zr14  1  0.89047000  0.44611000  0.00000000  1.0
  Zr  Zr15  1  0.89047000  0.94611000  0.50000000  1.0
  Zr  Zr16  1  0.39047000  0.55389000  0.50000000  1.0
  Zr  Zr17  1  0.39047000  0.05389000  0.00000000  1.0
  Zr  Zr18  1  0.89047000  0.55389000  0.00000000  1.0
  Zr  Zr19  1  0.89047000  0.05389000  0.50000000  1.0
  Zr  Zr20  1  0.60953000  0.44611000  0.50000000  1.0
  Zr  Zr21  1  0.60953000  0.94611000  0.00000000  1.0
  Zr  Zr22  1  0.10953000  0.44611000  0.00000000  1.0
  Zr  Zr23  1  0.10953000  0.94611000  0.50000000  1.0
  H  H24  1  0.27220000  0.36600000  0.40710000  1.0
  H  H25  1  0.40640000  0.43810000  0.33880000  1.0
  H  H26  1  0.23150000  0.32710000  0.35550000  1.0
  H  H27  1  0.36440000  0.39980000  0.28790000  1.0
  H  H28  1  0.28180000  0.27960000  0.30490000  1.0
  H  H29  1  0.27220000  0.86600000  0.90710000  1.0
  H  H30  1  0.40640000  0.93810000  0.83880000  1.0
  H  H31  1  0.23150000  0.82710000  0.85550000  1.0
  H  H32  1  0.36440000  0.89980000  0.78790000  1.0
  H  H33  1  0.28180000  0.77960000  0.80490000  1.0
  H  H34  1  0.77220000  0.36600000  0.90710000  1.0
  H  H35  1  0.90640000  0.43810000  0.83880000  1.0
  H  H36  1  0.73150000  0.32710000  0.85550000  1.0
  H  H37  1  0.86440000  0.39980000  0.78790000  1.0
  H  H38  1  0.78180000  0.27960000  0.80490000  1.0
  H  H39  1  0.77220000  0.86600000  0.40710000  1.0
  H  H40  1  0.90640000  0.93810000  0.33880000  1.0
  H  H41  1  0.73150000  0.82710000  0.35550000  1.0
  H  H42  1  0.86440000  0.89980000  0.28790000  1.0
  H  H43  1  0.78180000  0.77960000  0.30490000  1.0
  H  H44  1  0.72780000  0.63400000  0.40710000  1.0
  H  H45  1  0.59360000  0.56190000  0.33880000  1.0
  H  H46  1  0.76850000  0.67290000  0.35550000  1.0
  H  H47  1  0.63560000  0.60020000  0.28790000  1.0
  H  H48  1  0.71820000  0.72040000  0.30490000  1.0
  H  H49  1  0.72780000  0.13400000  0.90710000  1.0
  H  H50  1  0.59360000  0.06190000  0.83880000  1.0
  H  H51  1  0.76850000  0.17290000  0.85550000  1.0
  H  H52  1  0.63560000  0.10020000  0.78790000  1.0
  H  H53  1  0.71820000  0.22040000  0.80490000  1.0
  H  H54  1  0.22780000  0.63400000  0.90710000  1.0
  H  H55  1  0.09360000  0.56190000  0.83880000  1.0
  H  H56  1  0.26850000  0.67290000  0.85550000  1.0
  H  H57  1  0.13560000  0.60020000  0.78790000  1.0
  H  H58  1  0.21820000  0.72040000  0.80490000  1.0
  H  H59  1  0.22780000  0.13400000  0.40710000  1.0
  H  H60  1  0.09360000  0.06190000  0.33880000  1.0
  H  H61  1  0.26850000  0.17290000  0.35550000  1.0
  H  H62  1  0.13560000  0.10020000  0.28790000  1.0
  H  H63  1  0.21820000  0.22040000  0.30490000  1.0
  H  H64  1  0.72780000  0.36600000  0.59290000  1.0
  H  H65  1  0.59360000  0.43810000  0.66120000  1.0
  H  H66  1  0.76850000  0.32710000  0.64450000  1.0
  H  H67  1  0.63560000  0.39980000  0.71210000  1.0
  H  H68  1  0.71820000  0.27960000  0.69510000  1.0
  H  H69  1  0.72780000  0.86600000  0.09290000  1.0
  H  H70  1  0.59360000  0.93810000  0.16120000  1.0
  H  H71  1  0.76850000  0.82710000  0.14450000  1.0
  H  H72  1  0.63560000  0.89980000  0.21210000  1.0
  H  H73  1  0.71820000  0.77960000  0.19510000  1.0
  H  H74  1  0.22780000  0.36600000  0.09290000  1.0
  H  H75  1  0.09360000  0.43810000  0.16120000  1.0
  H  H76  1  0.26850000  0.32710000  0.14450000  1.0
  H  H77  1  0.13560000  0.39980000  0.21210000  1.0
  H  H78  1  0.21820000  0.27960000  0.19510000  1.0
  H  H79  1  0.22780000  0.86600000  0.59290000  1.0
  H  H80  1  0.09360000  0.93810000  0.66120000  1.0
  H  H81  1  0.26850000  0.82710000  0.64450000  1.0
  H  H82  1  0.13560000  0.89980000  0.71210000  1.0
  H  H83  1  0.21820000  0.77960000  0.69510000  1.0
  H  H84  1  0.27220000  0.63400000  0.59290000  1.0
  H  H85  1  0.40640000  0.56190000  0.66120000  1.0
  H  H86  1  0.23150000  0.67290000  0.64450000  1.0
  H  H87  1  0.36440000  0.60020000  0.71210000  1.0
  H  H88  1  0.28180000  0.72040000  0.69510000  1.0
  H  H89  1  0.27220000  0.13400000  0.09290000  1.0
  H  H90  1  0.40640000  0.06190000  0.16120000  1.0
  H  H91  1  0.23150000  0.17290000  0.14450000  1.0
  H  H92  1  0.36440000  0.10020000  0.21210000  1.0
  H  H93  1  0.28180000  0.22040000  0.19510000  1.0
  H  H94  1  0.77220000  0.63400000  0.09290000  1.0
  H  H95  1  0.90640000  0.56190000  0.16120000  1.0
  H  H96  1  0.73150000  0.67290000  0.14450000  1.0
  H  H97  1  0.86440000  0.60020000  0.21210000  1.0
  H  H98  1  0.78180000  0.72040000  0.19510000  1.0
  H  H99  1  0.77220000  0.13400000  0.59290000  1.0
  H  H100  1  0.90640000  0.06190000  0.66120000  1.0
  H  H101  1  0.73150000  0.17290000  0.64450000  1.0
  H  H102  1  0.86440000  0.10020000  0.71210000  1.0
  H  H103  1  0.78180000  0.22040000  0.69510000  1.0
  H  H104  1  0.72780000  0.63400000  0.59290000  1.0
  H  H105  1  0.59360000  0.56190000  0.66120000  1.0
  H  H106  1  0.76850000  0.67290000  0.64450000  1.0
  H  H107  1  0.63560000  0.60020000  0.71210000  1.0
  H  H108  1  0.71820000  0.72040000  0.69510000  1.0
  H  H109  1  0.72780000  0.13400000  0.09290000  1.0
  H  H110  1  0.59360000  0.06190000  0.16120000  1.0
  H  H111  1  0.76850000  0.17290000  0.14450000  1.0
  H  H112  1  0.63560000  0.10020000  0.21210000  1.0
  H  H113  1  0.71820000  0.22040000  0.19510000  1.0
  H  H114  1  0.22780000  0.63400000  0.09290000  1.0
  H  H115  1  0.09360000  0.56190000  0.16120000  1.0
  H  H116  1  0.26850000  0.67290000  0.14450000  1.0
  H  H117  1  0.13560000  0.60020000  0.21210000  1.0
  H  H118  1  0.21820000  0.72040000  0.19510000  1.0
  H  H119  1  0.22780000  0.13400000  0.59290000  1.0
  H  H120  1  0.09360000  0.06190000  0.66120000  1.0
  H  H121  1  0.26850000  0.17290000  0.64450000  1.0
  H  H122  1  0.13560000  0.10020000  0.71210000  1.0
  H  H123  1  0.21820000  0.22040000  0.69510000  1.0
  H  H124  1  0.27220000  0.36600000  0.59290000  1.0
  H  H125  1  0.40640000  0.43810000  0.66120000  1.0
  H  H126  1  0.23150000  0.32710000  0.64450000  1.0
  H  H127  1  0.36440000  0.39980000  0.71210000  1.0
  H  H128  1  0.28180000  0.27960000  0.69510000  1.0
  H  H129  1  0.27220000  0.86600000  0.09290000  1.0
  H  H130  1  0.40640000  0.93810000  0.16120000  1.0
  H  H131  1  0.23150000  0.82710000  0.14450000  1.0
  H  H132  1  0.36440000  0.89980000  0.21210000  1.0
  H  H133  1  0.28180000  0.77960000  0.19510000  1.0
  H  H134  1  0.77220000  0.36600000  0.09290000  1.0
  H  H135  1  0.90640000  0.43810000  0.16120000  1.0
  H  H136  1  0.73150000  0.32710000  0.14450000  1.0
  H  H137  1  0.86440000  0.39980000  0.21210000  1.0
  H  H138  1  0.78180000  0.27960000  0.19510000  1.0
  H  H139  1  0.77220000  0.86600000  0.59290000  1.0
  H  H140  1  0.90640000  0.93810000  0.66120000  1.0
  H  H141  1  0.73150000  0.82710000  0.64450000  1.0
  H  H142  1  0.86440000  0.89980000  0.71210000  1.0
  H  H143  1  0.78180000  0.77960000  0.69510000  1.0
  H  H144  1  0.27220000  0.63400000  0.40710000  1.0
  H  H145  1  0.40640000  0.56190000  0.33880000  1.0
  H  H146  1  0.23150000  0.67290000  0.35550000  1.0
  H  H147  1  0.36440000  0.60020000  0.28790000  1.0
  H  H148  1  0.28180000  0.72040000  0.30490000  1.0
  H  H149  1  0.27220000  0.13400000  0.90710000  1.0
  H  H150  1  0.40640000  0.06190000  0.83880000  1.0
  H  H151  1  0.23150000  0.17290000  0.85550000  1.0
  H  H152  1  0.36440000  0.10020000  0.78790000  1.0
  H  H153  1  0.28180000  0.22040000  0.80490000  1.0
  H  H154  1  0.77220000  0.63400000  0.90710000  1.0
  H  H155  1  0.90640000  0.56190000  0.83880000  1.0
  H  H156  1  0.73150000  0.67290000  0.85550000  1.0
  H  H157  1  0.86440000  0.60020000  0.78790000  1.0
  H  H158  1  0.78180000  0.72040000  0.80490000  1.0
  H  H159  1  0.77220000  0.13400000  0.40710000  1.0
  H  H160  1  0.90640000  0.06190000  0.33880000  1.0
  H  H161  1  0.73150000  0.17290000  0.35550000  1.0
  H  H162  1  0.86440000  0.10020000  0.28790000  1.0
  H  H163  1  0.78180000  0.22040000  0.30490000  1.0
  H  H164  1  0.72780000  0.36600000  0.40710000  1.0
  H  H165  1  0.59360000  0.43810000  0.33880000  1.0
  H  H166  1  0.76850000  0.32710000  0.35550000  1.0
  H  H167  1  0.63560000  0.39980000  0.28790000  1.0
  H  H168  1  0.71820000  0.27960000  0.30490000  1.0
  H  H169  1  0.72780000  0.86600000  0.90710000  1.0
  H  H170  1  0.59360000  0.93810000  0.83880000  1.0
  H  H171  1  0.76850000  0.82710000  0.85550000  1.0
  H  H172  1  0.63560000  0.89980000  0.78790000  1.0
  H  H173  1  0.71820000  0.77960000  0.80490000  1.0
  H  H174  1  0.22780000  0.36600000  0.90710000  1.0
  H  H175  1  0.09360000  0.43810000  0.83880000  1.0
  H  H176  1  0.26850000  0.32710000  0.85550000  1.0
  H  H177  1  0.13560000  0.39980000  0.78790000  1.0
  H  H178  1  0.21820000  0.27960000  0.80490000  1.0
  H  H179  1  0.22780000  0.86600000  0.40710000  1.0
  H  H180  1  0.09360000  0.93810000  0.33880000  1.0
  H  H181  1  0.26850000  0.82710000  0.35550000  1.0
  H  H182  1  0.13560000  0.89980000  0.28790000  1.0
  H  H183  1  0.21820000  0.77960000  0.30490000  1.0
  H  H184  1  0.65800000  0.50000000  0.45090000  1.0
  H  H185  1  0.65800000  0.00000000  0.95090000  1.0
  H  H186  1  0.15800000  0.50000000  0.95090000  1.0
  H  H187  1  0.15800000  0.00000000  0.45090000  1.0
  H  H188  1  0.34200000  0.50000000  0.45090000  1.0
  H  H189  1  0.34200000  0.00000000  0.95090000  1.0
  H  H190  1  0.84200000  0.50000000  0.95090000  1.0
  H  H191  1  0.84200000  0.00000000  0.45090000  1.0
  H  H192  1  0.34200000  0.50000000  0.54910000  1.0
  H  H193  1  0.34200000  0.00000000  0.04910000  1.0
  H  H194  1  0.84200000  0.50000000  0.04910000  1.0
  H  H195  1  0.84200000  0.00000000  0.54910000  1.0
  H  H196  1  0.65800000  0.50000000  0.54910000  1.0
  H  H197  1  0.65800000  0.00000000  0.04910000  1.0
  H  H198  1  0.15800000  0.50000000  0.04910000  1.0
  H  H199  1  0.15800000  0.00000000  0.54910000  1.0
  H  H200  1  0.50000000  0.57810000  0.45040000  1.0
  H  H201  1  0.50000000  0.07810000  0.95040000  1.0
  H  H202  1  0.00000000  0.57810000  0.95040000  1.0
  H  H203  1  0.00000000  0.07810000  0.45040000  1.0
  H  H204  1  0.50000000  0.42190000  0.45040000  1.0
  H  H205  1  0.50000000  0.92190000  0.95040000  1.0
  H  H206  1  0.00000000  0.42190000  0.95040000  1.0
  H  H207  1  0.00000000  0.92190000  0.45040000  1.0
  H  H208  1  0.50000000  0.57810000  0.54960000  1.0
  H  H209  1  0.50000000  0.07810000  0.04960000  1.0
  H  H210  1  0.00000000  0.57810000  0.04960000  1.0
  H  H211  1  0.00000000  0.07810000  0.54960000  1.0
  H  H212  1  0.50000000  0.42190000  0.54960000  1.0
  H  H213  1  0.50000000  0.92190000  0.04960000  1.0
  H  H214  1  0.00000000  0.42190000  0.04960000  1.0
  H  H215  1  0.00000000  0.92190000  0.54960000  1.0
  H  H216  1  0.75430000  0.52320000  0.50000000  1.0
  H  H217  1  0.75430000  0.02320000  0.00000000  1.0
  H  H218  1  0.25430000  0.52320000  0.00000000  1.0
  H  H219  1  0.25430000  0.02320000  0.50000000  1.0
  H  H220  1  0.24570000  0.47680000  0.50000000  1.0
  H  H221  1  0.24570000  0.97680000  0.00000000  1.0
  H  H222  1  0.74570000  0.47680000  0.00000000  1.0
  H  H223  1  0.74570000  0.97680000  0.50000000  1.0
  H  H224  1  0.24570000  0.52320000  0.50000000  1.0
  H  H225  1  0.24570000  0.02320000  0.00000000  1.0
  H  H226  1  0.74570000  0.52320000  0.00000000  1.0
  H  H227  1  0.74570000  0.02320000  0.50000000  1.0
  H  H228  1  0.75430000  0.47680000  0.50000000  1.0
  H  H229  1  0.75430000  0.97680000  0.00000000  1.0
  H  H230  1  0.25430000  0.47680000  0.00000000  1.0
  H  H231  1  0.25430000  0.97680000  0.50000000  1.0
  H  H232  1  0.25000000  0.38550000  0.25000000  1.0
  H  H233  1  0.25000000  0.88550000  0.75000000  1.0
  H  H234  1  0.75000000  0.61450000  0.25000000  1.0
  H  H235  1  0.75000000  0.11450000  0.75000000  1.0
  H  H236  1  0.25000000  0.11450000  0.25000000  1.0
  H  H237  1  0.75000000  0.38550000  0.75000000  1.0
  H  H238  1  0.75000000  0.88550000  0.25000000  1.0
  H  H239  1  0.25000000  0.61450000  0.75000000  1.0
  H  H240  1  0.75000000  0.61450000  0.75000000  1.0
  H  H241  1  0.75000000  0.11450000  0.25000000  1.0
  H  H242  1  0.25000000  0.61450000  0.25000000  1.0
  H  H243  1  0.25000000  0.38550000  0.75000000  1.0
  H  H244  1  0.25000000  0.88550000  0.25000000  1.0
  H  H245  1  0.25000000  0.11450000  0.75000000  1.0
  H  H246  1  0.75000000  0.38550000  0.25000000  1.0
  H  H247  1  0.75000000  0.88550000  0.75000000  1.0
  C  C248  1  0.37040000  0.43131000  0.41018000  1.0
  C  C249  1  0.34120000  0.40596000  0.37800000  1.0
  C  C250  1  0.29090000  0.37300000  0.38276000  1.0
  C  C251  1  0.37030000  0.41577000  0.34228000  1.0
  C  C252  1  0.26710000  0.34964000  0.35212000  1.0
  C  C253  1  0.34590000  0.39266000  0.31219000  1.0
  C  C254  1  0.29550000  0.35957000  0.31647000  1.0
  C  C255  1  0.26980000  0.33590000  0.28273000  1.0
  C  C256  1  0.26910000  0.29397000  0.28258000  1.0
  C  C257  1  0.37040000  0.93131000  0.91018000  1.0
  C  C258  1  0.34120000  0.90596000  0.87800000  1.0
  C  C259  1  0.29090000  0.87300000  0.88276000  1.0
  C  C260  1  0.37030000  0.91577000  0.84228000  1.0
  C  C261  1  0.26710000  0.84964000  0.85212000  1.0
  C  C262  1  0.34590000  0.89266000  0.81219000  1.0
  C  C263  1  0.29550000  0.85957000  0.81647000  1.0
  C  C264  1  0.26980000  0.83590000  0.78273000  1.0
  C  C265  1  0.26910000  0.79397000  0.78258000  1.0
  C  C266  1  0.87040000  0.43131000  0.91018000  1.0
  C  C267  1  0.84120000  0.40596000  0.87800000  1.0
  C  C268  1  0.79090000  0.37300000  0.88276000  1.0
  C  C269  1  0.87030000  0.41577000  0.84228000  1.0
  C  C270  1  0.76710000  0.34964000  0.85212000  1.0
  C  C271  1  0.84590000  0.39266000  0.81219000  1.0
  C  C272  1  0.79550000  0.35957000  0.81647000  1.0
  C  C273  1  0.76980000  0.33590000  0.78273000  1.0
  C  C274  1  0.76910000  0.29397000  0.78258000  1.0
  C  C275  1  0.87040000  0.93131000  0.41018000  1.0
  C  C276  1  0.84120000  0.90596000  0.37800000  1.0
  C  C277  1  0.79090000  0.87300000  0.38276000  1.0
  C  C278  1  0.87030000  0.91577000  0.34228000  1.0
  C  C279  1  0.76710000  0.84964000  0.35212000  1.0
  C  C280  1  0.84590000  0.89266000  0.31219000  1.0
  C  C281  1  0.79550000  0.85957000  0.31647000  1.0
  C  C282  1  0.76980000  0.83590000  0.28273000  1.0
  C  C283  1  0.76910000  0.79397000  0.28258000  1.0
  C  C284  1  0.62960000  0.56869000  0.41018000  1.0
  C  C285  1  0.65880000  0.59404000  0.37800000  1.0
  C  C286  1  0.70910000  0.62700000  0.38276000  1.0
  C  C287  1  0.62970000  0.58423000  0.34228000  1.0
  C  C288  1  0.73290000  0.65036000  0.35212000  1.0
  C  C289  1  0.65410000  0.60734000  0.31219000  1.0
  C  C290  1  0.70450000  0.64043000  0.31647000  1.0
  C  C291  1  0.73020000  0.66410000  0.28273000  1.0
  C  C292  1  0.73090000  0.70603000  0.28258000  1.0
  C  C293  1  0.62960000  0.06869000  0.91018000  1.0
  C  C294  1  0.65880000  0.09404000  0.87800000  1.0
  C  C295  1  0.70910000  0.12700000  0.88276000  1.0
  C  C296  1  0.62970000  0.08423000  0.84228000  1.0
  C  C297  1  0.73290000  0.15036000  0.85212000  1.0
  C  C298  1  0.65410000  0.10734000  0.81219000  1.0
  C  C299  1  0.70450000  0.14043000  0.81647000  1.0
  C  C300  1  0.73020000  0.16410000  0.78273000  1.0
  C  C301  1  0.73090000  0.20603000  0.78258000  1.0
  C  C302  1  0.12960000  0.56869000  0.91018000  1.0
  C  C303  1  0.15880000  0.59404000  0.87800000  1.0
  C  C304  1  0.20910000  0.62700000  0.88276000  1.0
  C  C305  1  0.12970000  0.58423000  0.84228000  1.0
  C  C306  1  0.23290000  0.65036000  0.85212000  1.0
  C  C307  1  0.15410000  0.60734000  0.81219000  1.0
  C  C308  1  0.20450000  0.64043000  0.81647000  1.0
  C  C309  1  0.23020000  0.66410000  0.78273000  1.0
  C  C310  1  0.23090000  0.70603000  0.78258000  1.0
  C  C311  1  0.12960000  0.06869000  0.41018000  1.0
  C  C312  1  0.15880000  0.09404000  0.37800000  1.0
  C  C313  1  0.20910000  0.12700000  0.38276000  1.0
  C  C314  1  0.12970000  0.08423000  0.34228000  1.0
  C  C315  1  0.23290000  0.15036000  0.35212000  1.0
  C  C316  1  0.15410000  0.10734000  0.31219000  1.0
  C  C317  1  0.20450000  0.14043000  0.31647000  1.0
  C  C318  1  0.23020000  0.16410000  0.28273000  1.0
  C  C319  1  0.23090000  0.20603000  0.28258000  1.0
  C  C320  1  0.62960000  0.43131000  0.58982000  1.0
  C  C321  1  0.65880000  0.40596000  0.62200000  1.0
  C  C322  1  0.70910000  0.37300000  0.61724000  1.0
  C  C323  1  0.62970000  0.41577000  0.65772000  1.0
  C  C324  1  0.73290000  0.34964000  0.64788000  1.0
  C  C325  1  0.65410000  0.39266000  0.68781000  1.0
  C  C326  1  0.70450000  0.35957000  0.68353000  1.0
  C  C327  1  0.73020000  0.33590000  0.71727000  1.0
  C  C328  1  0.73090000  0.29397000  0.71742000  1.0
  C  C329  1  0.62960000  0.93131000  0.08982000  1.0
  C  C330  1  0.65880000  0.90596000  0.12200000  1.0
  C  C331  1  0.70910000  0.87300000  0.11724000  1.0
  C  C332  1  0.62970000  0.91577000  0.15772000  1.0
  C  C333  1  0.73290000  0.84964000  0.14788000  1.0
  C  C334  1  0.65410000  0.89266000  0.18781000  1.0
  C  C335  1  0.70450000  0.85957000  0.18353000  1.0
  C  C336  1  0.73020000  0.83590000  0.21727000  1.0
  C  C337  1  0.73090000  0.79397000  0.21742000  1.0
  C  C338  1  0.12960000  0.43131000  0.08982000  1.0
  C  C339  1  0.15880000  0.40596000  0.12200000  1.0
  C  C340  1  0.20910000  0.37300000  0.11724000  1.0
  C  C341  1  0.12970000  0.41577000  0.15772000  1.0
  C  C342  1  0.23290000  0.34964000  0.14788000  1.0
  C  C343  1  0.15410000  0.39266000  0.18781000  1.0
  C  C344  1  0.20450000  0.35957000  0.18353000  1.0
  C  C345  1  0.23020000  0.33590000  0.21727000  1.0
  C  C346  1  0.23090000  0.29397000  0.21742000  1.0
  C  C347  1  0.12960000  0.93131000  0.58982000  1.0
  C  C348  1  0.15880000  0.90596000  0.62200000  1.0
  C  C349  1  0.20910000  0.87300000  0.61724000  1.0
  C  C350  1  0.12970000  0.91577000  0.65772000  1.0
  C  C351  1  0.23290000  0.84964000  0.64788000  1.0
  C  C352  1  0.15410000  0.89266000  0.68781000  1.0
  C  C353  1  0.20450000  0.85957000  0.68353000  1.0
  C  C354  1  0.23020000  0.83590000  0.71727000  1.0
  C  C355  1  0.23090000  0.79397000  0.71742000  1.0
  C  C356  1  0.37040000  0.56869000  0.58982000  1.0
  C  C357  1  0.34120000  0.59404000  0.62200000  1.0
  C  C358  1  0.29090000  0.62700000  0.61724000  1.0
  C  C359  1  0.37030000  0.58423000  0.65772000  1.0
  C  C360  1  0.26710000  0.65036000  0.64788000  1.0
  C  C361  1  0.34590000  0.60734000  0.68781000  1.0
  C  C362  1  0.29550000  0.64043000  0.68353000  1.0
  C  C363  1  0.26980000  0.66410000  0.71727000  1.0
  C  C364  1  0.26910000  0.70603000  0.71742000  1.0
  C  C365  1  0.37040000  0.06869000  0.08982000  1.0
  C  C366  1  0.34120000  0.09404000  0.12200000  1.0
  C  C367  1  0.29090000  0.12700000  0.11724000  1.0
  C  C368  1  0.37030000  0.08423000  0.15772000  1.0
  C  C369  1  0.26710000  0.15036000  0.14788000  1.0
  C  C370  1  0.34590000  0.10734000  0.18781000  1.0
  C  C371  1  0.29550000  0.14043000  0.18353000  1.0
  C  C372  1  0.26980000  0.16410000  0.21727000  1.0
  C  C373  1  0.26910000  0.20603000  0.21742000  1.0
  C  C374  1  0.87040000  0.56869000  0.08982000  1.0
  C  C375  1  0.84120000  0.59404000  0.12200000  1.0
  C  C376  1  0.79090000  0.62700000  0.11724000  1.0
  C  C377  1  0.87030000  0.58423000  0.15772000  1.0
  C  C378  1  0.76710000  0.65036000  0.14788000  1.0
  C  C379  1  0.84590000  0.60734000  0.18781000  1.0
  C  C380  1  0.79550000  0.64043000  0.18353000  1.0
  C  C381  1  0.76980000  0.66410000  0.21727000  1.0
  C  C382  1  0.76910000  0.70603000  0.21742000  1.0
  C  C383  1  0.87040000  0.06869000  0.58982000  1.0
  C  C384  1  0.84120000  0.09404000  0.62200000  1.0
  C  C385  1  0.79090000  0.12700000  0.61724000  1.0
  C  C386  1  0.87030000  0.08423000  0.65772000  1.0
  C  C387  1  0.76710000  0.15036000  0.64788000  1.0
  C  C388  1  0.84590000  0.10734000  0.68781000  1.0
  C  C389  1  0.79550000  0.14043000  0.68353000  1.0
  C  C390  1  0.76980000  0.16410000  0.71727000  1.0
  C  C391  1  0.76910000  0.20603000  0.71742000  1.0
  C  C392  1  0.62960000  0.56869000  0.58982000  1.0
  C  C393  1  0.65880000  0.59404000  0.62200000  1.0
  C  C394  1  0.70910000  0.62700000  0.61724000  1.0
  C  C395  1  0.62970000  0.58423000  0.65772000  1.0
  C  C396  1  0.73290000  0.65036000  0.64788000  1.0
  C  C397  1  0.65410000  0.60734000  0.68781000  1.0
  C  C398  1  0.70450000  0.64043000  0.68353000  1.0
  C  C399  1  0.73020000  0.66410000  0.71727000  1.0
  C  C400  1  0.73090000  0.70603000  0.71742000  1.0
  C  C401  1  0.62960000  0.06869000  0.08982000  1.0
  C  C402  1  0.65880000  0.09404000  0.12200000  1.0
  C  C403  1  0.70910000  0.12700000  0.11724000  1.0
  C  C404  1  0.62970000  0.08423000  0.15772000  1.0
  C  C405  1  0.73290000  0.15036000  0.14788000  1.0
  C  C406  1  0.65410000  0.10734000  0.18781000  1.0
  C  C407  1  0.70450000  0.14043000  0.18353000  1.0
  C  C408  1  0.73020000  0.16410000  0.21727000  1.0
  C  C409  1  0.73090000  0.20603000  0.21742000  1.0
  C  C410  1  0.12960000  0.56869000  0.08982000  1.0
  C  C411  1  0.15880000  0.59404000  0.12200000  1.0
  C  C412  1  0.20910000  0.62700000  0.11724000  1.0
  C  C413  1  0.12970000  0.58423000  0.15772000  1.0
  C  C414  1  0.23290000  0.65036000  0.14788000  1.0
  C  C415  1  0.15410000  0.60734000  0.18781000  1.0
  C  C416  1  0.20450000  0.64043000  0.18353000  1.0
  C  C417  1  0.23020000  0.66410000  0.21727000  1.0
  C  C418  1  0.23090000  0.70603000  0.21742000  1.0
  C  C419  1  0.12960000  0.06869000  0.58982000  1.0
  C  C420  1  0.15880000  0.09404000  0.62200000  1.0
  C  C421  1  0.20910000  0.12700000  0.61724000  1.0
  C  C422  1  0.12970000  0.08423000  0.65772000  1.0
  C  C423  1  0.23290000  0.15036000  0.64788000  1.0
  C  C424  1  0.15410000  0.10734000  0.68781000  1.0
  C  C425  1  0.20450000  0.14043000  0.68353000  1.0
  C  C426  1  0.23020000  0.16410000  0.71727000  1.0
  C  C427  1  0.23090000  0.20603000  0.71742000  1.0
  C  C428  1  0.37040000  0.43131000  0.58982000  1.0
  C  C429  1  0.34120000  0.40596000  0.62200000  1.0
  C  C430  1  0.29090000  0.37300000  0.61724000  1.0
  C  C431  1  0.37030000  0.41577000  0.65772000  1.0
  C  C432  1  0.26710000  0.34964000  0.64788000  1.0
  C  C433  1  0.34590000  0.39266000  0.68781000  1.0
  C  C434  1  0.29550000  0.35957000  0.68353000  1.0
  C  C435  1  0.26980000  0.33590000  0.71727000  1.0
  C  C436  1  0.26910000  0.29397000  0.71742000  1.0
  C  C437  1  0.37040000  0.93131000  0.08982000  1.0
  C  C438  1  0.34120000  0.90596000  0.12200000  1.0
  C  C439  1  0.29090000  0.87300000  0.11724000  1.0
  C  C440  1  0.37030000  0.91577000  0.15772000  1.0
  C  C441  1  0.26710000  0.84964000  0.14788000  1.0
  C  C442  1  0.34590000  0.89266000  0.18781000  1.0
  C  C443  1  0.29550000  0.85957000  0.18353000  1.0
  C  C444  1  0.26980000  0.83590000  0.21727000  1.0
  C  C445  1  0.26910000  0.79397000  0.21742000  1.0
  C  C446  1  0.87040000  0.43131000  0.08982000  1.0
  C  C447  1  0.84120000  0.40596000  0.12200000  1.0
  C  C448  1  0.79090000  0.37300000  0.11724000  1.0
  C  C449  1  0.87030000  0.41577000  0.15772000  1.0
  C  C450  1  0.76710000  0.34964000  0.14788000  1.0
  C  C451  1  0.84590000  0.39266000  0.18781000  1.0
  C  C452  1  0.79550000  0.35957000  0.18353000  1.0
  C  C453  1  0.76980000  0.33590000  0.21727000  1.0
  C  C454  1  0.76910000  0.29397000  0.21742000  1.0
  C  C455  1  0.87040000  0.93131000  0.58982000  1.0
  C  C456  1  0.84120000  0.90596000  0.62200000  1.0
  C  C457  1  0.79090000  0.87300000  0.61724000  1.0
  C  C458  1  0.87030000  0.91577000  0.65772000  1.0
  C  C459  1  0.76710000  0.84964000  0.64788000  1.0
  C  C460  1  0.84590000  0.89266000  0.68781000  1.0
  C  C461  1  0.79550000  0.85957000  0.68353000  1.0
  C  C462  1  0.76980000  0.83590000  0.71727000  1.0
  C  C463  1  0.76910000  0.79397000  0.71742000  1.0
  C  C464  1  0.37040000  0.56869000  0.41018000  1.0
  C  C465  1  0.34120000  0.59404000  0.37800000  1.0
  C  C466  1  0.29090000  0.62700000  0.38276000  1.0
  C  C467  1  0.37030000  0.58423000  0.34228000  1.0
  C  C468  1  0.26710000  0.65036000  0.35212000  1.0
  C  C469  1  0.34590000  0.60734000  0.31219000  1.0
  C  C470  1  0.29550000  0.64043000  0.31647000  1.0
  C  C471  1  0.26980000  0.66410000  0.28273000  1.0
  C  C472  1  0.26910000  0.70603000  0.28258000  1.0
  C  C473  1  0.37040000  0.06869000  0.91018000  1.0
  C  C474  1  0.34120000  0.09404000  0.87800000  1.0
  C  C475  1  0.29090000  0.12700000  0.88276000  1.0
  C  C476  1  0.37030000  0.08423000  0.84228000  1.0
  C  C477  1  0.26710000  0.15036000  0.85212000  1.0
  C  C478  1  0.34590000  0.10734000  0.81219000  1.0
  C  C479  1  0.29550000  0.14043000  0.81647000  1.0
  C  C480  1  0.26980000  0.16410000  0.78273000  1.0
  C  C481  1  0.26910000  0.20603000  0.78258000  1.0
  C  C482  1  0.87040000  0.56869000  0.91018000  1.0
  C  C483  1  0.84120000  0.59404000  0.87800000  1.0
  C  C484  1  0.79090000  0.62700000  0.88276000  1.0
  C  C485  1  0.87030000  0.58423000  0.84228000  1.0
  C  C486  1  0.76710000  0.65036000  0.85212000  1.0
  C  C487  1  0.84590000  0.60734000  0.81219000  1.0
  C  C488  1  0.79550000  0.64043000  0.81647000  1.0
  C  C489  1  0.76980000  0.66410000  0.78273000  1.0
  C  C490  1  0.76910000  0.70603000  0.78258000  1.0
  C  C491  1  0.87040000  0.06869000  0.41018000  1.0
  C  C492  1  0.84120000  0.09404000  0.37800000  1.0
  C  C493  1  0.79090000  0.12700000  0.38276000  1.0
  C  C494  1  0.87030000  0.08423000  0.34228000  1.0
  C  C495  1  0.76710000  0.15036000  0.35212000  1.0
  C  C496  1  0.84590000  0.10734000  0.31219000  1.0
  C  C497  1  0.79550000  0.14043000  0.31647000  1.0
  C  C498  1  0.76980000  0.16410000  0.28273000  1.0
  C  C499  1  0.76910000  0.20603000  0.28258000  1.0
  C  C500  1  0.62960000  0.43131000  0.41018000  1.0
  C  C501  1  0.65880000  0.40596000  0.37800000  1.0
  C  C502  1  0.70910000  0.37300000  0.38276000  1.0
  C  C503  1  0.62970000  0.41577000  0.34228000  1.0
  C  C504  1  0.73290000  0.34964000  0.35212000  1.0
  C  C505  1  0.65410000  0.39266000  0.31219000  1.0
  C  C506  1  0.70450000  0.35957000  0.31647000  1.0
  C  C507  1  0.73020000  0.33590000  0.28273000  1.0
  C  C508  1  0.73090000  0.29397000  0.28258000  1.0
  C  C509  1  0.62960000  0.93131000  0.91018000  1.0
  C  C510  1  0.65880000  0.90596000  0.87800000  1.0
  C  C511  1  0.70910000  0.87300000  0.88276000  1.0
  C  C512  1  0.62970000  0.91577000  0.84228000  1.0
  C  C513  1  0.73290000  0.84964000  0.85212000  1.0
  C  C514  1  0.65410000  0.89266000  0.81219000  1.0
  C  C515  1  0.70450000  0.85957000  0.81647000  1.0
  C  C516  1  0.73020000  0.83590000  0.78273000  1.0
  C  C517  1  0.73090000  0.79397000  0.78258000  1.0
  C  C518  1  0.12960000  0.43131000  0.91018000  1.0
  C  C519  1  0.15880000  0.40596000  0.87800000  1.0
  C  C520  1  0.20910000  0.37300000  0.88276000  1.0
  C  C521  1  0.12970000  0.41577000  0.84228000  1.0
  C  C522  1  0.23290000  0.34964000  0.85212000  1.0
  C  C523  1  0.15410000  0.39266000  0.81219000  1.0
  C  C524  1  0.20450000  0.35957000  0.81647000  1.0
  C  C525  1  0.23020000  0.33590000  0.78273000  1.0
  C  C526  1  0.23090000  0.29397000  0.78258000  1.0
  C  C527  1  0.12960000  0.93131000  0.41018000  1.0
  C  C528  1  0.15880000  0.90596000  0.37800000  1.0
  C  C529  1  0.20910000  0.87300000  0.38276000  1.0
  C  C530  1  0.12970000  0.91577000  0.34228000  1.0
  C  C531  1  0.23290000  0.84964000  0.35212000  1.0
  C  C532  1  0.15410000  0.89266000  0.31219000  1.0
  C  C533  1  0.20450000  0.85957000  0.31647000  1.0
  C  C534  1  0.23020000  0.83590000  0.28273000  1.0
  C  C535  1  0.23090000  0.79397000  0.28258000  1.0
  C  C536  1  0.25000000  0.35676000  0.25000000  1.0
  C  C537  1  0.25000000  0.27231000  0.25000000  1.0
  C  C538  1  0.25000000  0.85676000  0.75000000  1.0
  C  C539  1  0.25000000  0.77231000  0.75000000  1.0
  C  C540  1  0.75000000  0.64324000  0.25000000  1.0
  C  C541  1  0.75000000  0.72769000  0.25000000  1.0
  C  C542  1  0.75000000  0.14324000  0.75000000  1.0
  C  C543  1  0.75000000  0.22769000  0.75000000  1.0
  C  C544  1  0.25000000  0.14324000  0.25000000  1.0
  C  C545  1  0.25000000  0.22769000  0.25000000  1.0
  C  C546  1  0.75000000  0.35676000  0.75000000  1.0
  C  C547  1  0.75000000  0.27231000  0.75000000  1.0
  C  C548  1  0.75000000  0.85676000  0.25000000  1.0
  C  C549  1  0.75000000  0.77231000  0.25000000  1.0
  C  C550  1  0.25000000  0.64324000  0.75000000  1.0
  C  C551  1  0.25000000  0.72769000  0.75000000  1.0
  C  C552  1  0.75000000  0.64324000  0.75000000  1.0
  C  C553  1  0.75000000  0.72769000  0.75000000  1.0
  C  C554  1  0.75000000  0.14324000  0.25000000  1.0
  C  C555  1  0.75000000  0.22769000  0.25000000  1.0
  C  C556  1  0.25000000  0.64324000  0.25000000  1.0
  C  C557  1  0.25000000  0.72769000  0.25000000  1.0
  C  C558  1  0.25000000  0.35676000  0.75000000  1.0
  C  C559  1  0.25000000  0.27231000  0.75000000  1.0
  C  C560  1  0.25000000  0.85676000  0.25000000  1.0
  C  C561  1  0.25000000  0.77231000  0.25000000  1.0
  C  C562  1  0.25000000  0.14324000  0.75000000  1.0
  C  C563  1  0.25000000  0.22769000  0.75000000  1.0
  C  C564  1  0.75000000  0.35676000  0.25000000  1.0
  C  C565  1  0.75000000  0.27231000  0.25000000  1.0
  C  C566  1  0.75000000  0.85676000  0.75000000  1.0
  C  C567  1  0.75000000  0.77231000  0.75000000  1.0
  O  O568  1  0.41790000  0.46001000  0.40106000  1.0
  O  O569  1  0.34770000  0.42257000  0.44291000  1.0
  O  O570  1  0.41790000  0.96001000  0.90106000  1.0
  O  O571  1  0.34770000  0.92257000  0.94291000  1.0
  O  O572  1  0.91790000  0.46001000  0.90106000  1.0
  O  O573  1  0.84770000  0.42257000  0.94291000  1.0
  O  O574  1  0.91790000  0.96001000  0.40106000  1.0
  O  O575  1  0.84770000  0.92257000  0.44291000  1.0
  O  O576  1  0.58210000  0.53999000  0.40106000  1.0
  O  O577  1  0.65230000  0.57743000  0.44291000  1.0
  O  O578  1  0.58210000  0.03999000  0.90106000  1.0
  O  O579  1  0.65230000  0.07743000  0.94291000  1.0
  O  O580  1  0.08210000  0.53999000  0.90106000  1.0
  O  O581  1  0.15230000  0.57743000  0.94291000  1.0
  O  O582  1  0.08210000  0.03999000  0.40106000  1.0
  O  O583  1  0.15230000  0.07743000  0.44291000  1.0
  O  O584  1  0.58210000  0.46001000  0.59894000  1.0
  O  O585  1  0.65230000  0.42257000  0.55709000  1.0
  O  O586  1  0.58210000  0.96001000  0.09894000  1.0
  O  O587  1  0.65230000  0.92257000  0.05709000  1.0
  O  O588  1  0.08210000  0.46001000  0.09894000  1.0
  O  O589  1  0.15230000  0.42257000  0.05709000  1.0
  O  O590  1  0.08210000  0.96001000  0.59894000  1.0
  O  O591  1  0.15230000  0.92257000  0.55709000  1.0
  O  O592  1  0.41790000  0.53999000  0.59894000  1.0
  O  O593  1  0.34770000  0.57743000  0.55709000  1.0
  O  O594  1  0.41790000  0.03999000  0.09894000  1.0
  O  O595  1  0.34770000  0.07743000  0.05709000  1.0
  O  O596  1  0.91790000  0.53999000  0.09894000  1.0
  O  O597  1  0.84770000  0.57743000  0.05709000  1.0
  O  O598  1  0.91790000  0.03999000  0.59894000  1.0
  O  O599  1  0.84770000  0.07743000  0.55709000  1.0
  O  O600  1  0.58210000  0.53999000  0.59894000  1.0
  O  O601  1  0.65230000  0.57743000  0.55709000  1.0
  O  O602  1  0.58210000  0.03999000  0.09894000  1.0
  O  O603  1  0.65230000  0.07743000  0.05709000  1.0
  O  O604  1  0.08210000  0.53999000  0.09894000  1.0
  O  O605  1  0.15230000  0.57743000  0.05709000  1.0
  O  O606  1  0.08210000  0.03999000  0.59894000  1.0
  O  O607  1  0.15230000  0.07743000  0.55709000  1.0
  O  O608  1  0.41790000  0.46001000  0.59894000  1.0
  O  O609  1  0.34770000  0.42257000  0.55709000  1.0
  O  O610  1  0.41790000  0.96001000  0.09894000  1.0
  O  O611  1  0.34770000  0.92257000  0.05709000  1.0
  O  O612  1  0.91790000  0.46001000  0.09894000  1.0
  O  O613  1  0.84770000  0.42257000  0.05709000  1.0
  O  O614  1  0.91790000  0.96001000  0.59894000  1.0
  O  O615  1  0.84770000  0.92257000  0.55709000  1.0
  O  O616  1  0.41790000  0.53999000  0.40106000  1.0
  O  O617  1  0.34770000  0.57743000  0.44291000  1.0
  O  O618  1  0.41790000  0.03999000  0.90106000  1.0
  O  O619  1  0.34770000  0.07743000  0.94291000  1.0
  O  O620  1  0.91790000  0.53999000  0.90106000  1.0
  O  O621  1  0.84770000  0.57743000  0.94291000  1.0
  O  O622  1  0.91790000  0.03999000  0.40106000  1.0
  O  O623  1  0.84770000  0.07743000  0.44291000  1.0
  O  O624  1  0.58210000  0.46001000  0.40106000  1.0
  O  O625  1  0.65230000  0.42257000  0.44291000  1.0
  O  O626  1  0.58210000  0.96001000  0.90106000  1.0
  O  O627  1  0.65230000  0.92257000  0.94291000  1.0
  O  O628  1  0.08210000  0.46001000  0.90106000  1.0
  O  O629  1  0.15230000  0.42257000  0.94291000  1.0
  O  O630  1  0.08210000  0.96001000  0.40106000  1.0
  O  O631  1  0.15230000  0.92257000  0.44291000  1.0
  O  O632  1  0.60810000  0.50000000  0.46727000  1.0
  O  O633  1  0.60810000  0.00000000  0.96727000  1.0
  O  O634  1  0.10810000  0.50000000  0.96727000  1.0
  O  O635  1  0.10810000  0.00000000  0.46727000  1.0
  O  O636  1  0.39190000  0.50000000  0.46727000  1.0
  O  O637  1  0.39190000  0.00000000  0.96727000  1.0
  O  O638  1  0.89190000  0.50000000  0.96727000  1.0
  O  O639  1  0.89190000  0.00000000  0.46727000  1.0
  O  O640  1  0.39190000  0.50000000  0.53273000  1.0
  O  O641  1  0.39190000  0.00000000  0.03273000  1.0
  O  O642  1  0.89190000  0.50000000  0.03273000  1.0
  O  O643  1  0.89190000  0.00000000  0.53273000  1.0
  O  O644  1  0.60810000  0.50000000  0.53273000  1.0
  O  O645  1  0.60810000  0.00000000  0.03273000  1.0
  O  O646  1  0.10810000  0.50000000  0.03273000  1.0
  O  O647  1  0.10810000  0.00000000  0.53273000  1.0
  O  O648  1  0.50000000  0.55353000  0.46687000  1.0
  O  O649  1  0.50000000  0.05353000  0.96687000  1.0
  O  O650  1  0.00000000  0.55353000  0.96687000  1.0
  O  O651  1  0.00000000  0.05353000  0.46687000  1.0
  O  O652  1  0.50000000  0.44647000  0.46687000  1.0
  O  O653  1  0.50000000  0.94647000  0.96687000  1.0
  O  O654  1  0.00000000  0.44647000  0.96687000  1.0
  O  O655  1  0.00000000  0.94647000  0.46687000  1.0
  O  O656  1  0.50000000  0.55353000  0.53313000  1.0
  O  O657  1  0.50000000  0.05353000  0.03313000  1.0
  O  O658  1  0.00000000  0.55353000  0.03313000  1.0
  O  O659  1  0.00000000  0.05353000  0.53313000  1.0
  O  O660  1  0.50000000  0.44647000  0.53313000  1.0
  O  O661  1  0.50000000  0.94647000  0.03313000  1.0
  O  O662  1  0.00000000  0.44647000  0.03313000  1.0
  O  O663  1  0.00000000  0.94647000  0.53313000  1.0
  O  O664  1  0.74170000  0.54785000  0.50000000  1.0
  O  O665  1  0.74170000  0.04785000  0.00000000  1.0
  O  O666  1  0.24170000  0.54785000  0.00000000  1.0
  O  O667  1  0.24170000  0.04785000  0.50000000  1.0
  O  O668  1  0.25830000  0.45215000  0.50000000  1.0
  O  O669  1  0.25830000  0.95215000  0.00000000  1.0
  O  O670  1  0.75830000  0.45215000  0.00000000  1.0
  O  O671  1  0.75830000  0.95215000  0.50000000  1.0
  O  O672  1  0.25830000  0.54785000  0.50000000  1.0
  O  O673  1  0.25830000  0.04785000  0.00000000  1.0
  O  O674  1  0.75830000  0.54785000  0.00000000  1.0
  O  O675  1  0.75830000  0.04785000  0.50000000  1.0
  O  O676  1  0.74170000  0.45215000  0.50000000  1.0
  O  O677  1  0.74170000  0.95215000  0.00000000  1.0
  O  O678  1  0.24170000  0.45215000  0.00000000  1.0
  O  O679  1  0.24170000  0.95215000  0.50000000  1.0
