# generated using pymatgen
data_Zr3H28(C4O)12
_symmetry_space_group_name_H-M   'P 1'
_cell_length_a   45.45480000
_cell_length_b   45.45480000
_cell_length_c   15.59510000
_cell_angle_alpha   90.00000000
_cell_angle_beta   90.00000000
_cell_angle_gamma   120.00000000
_symmetry_Int_Tables_number   1
_chemical_formula_structural   Zr3H28(C4O)12
_chemical_formula_sum   'Zr18 H168 C288 O72'
_cell_volume   27904.76041201
_cell_formula_units_Z   6
loop_
 _symmetry_equiv_pos_site_id
 _symmetry_equiv_pos_as_xyz
  1  'x, y, z'
loop_
 _atom_site_type_symbol
 _atom_site_label
 _atom_site_symmetry_multiplicity
 _atom_site_fract_x
 _atom_site_fract_y
 _atom_site_fract_z
 _atom_site_occupancy
  Zr  Zr0  1  0.46883000  0.53117000  0.50000000  1.0
  Zr  Zr1  1  0.46883000  0.93766000  0.50000000  1.0
  Zr  Zr2  1  0.06234000  0.53117000  0.50000000  1.0
  Zr  Zr3  1  0.53117000  0.46883000  0.50000000  1.0
  Zr  Zr4  1  0.53117000  0.06234000  0.50000000  1.0
  Zr  Zr5  1  0.93766000  0.46883000  0.50000000  1.0
  Zr  Zr6  1  0.46105000  0.46105000  0.61341000  1.0
  Zr  Zr7  1  0.53895000  0.00000000  0.61341000  1.0
  Zr  Zr8  1  0.00000000  0.53895000  0.61341000  1.0
  Zr  Zr9  1  0.53895000  0.53895000  0.61341000  1.0
  Zr  Zr10  1  0.46105000  0.00000000  0.61341000  1.0
  Zr  Zr11  1  0.00000000  0.46105000  0.61341000  1.0
  Zr  Zr12  1  0.46105000  0.46105000  0.38659000  1.0
  Zr  Zr13  1  0.00000000  0.53895000  0.38659000  1.0
  Zr  Zr14  1  0.53895000  0.00000000  0.38659000  1.0
  Zr  Zr15  1  0.53895000  0.53895000  0.38659000  1.0
  Zr  Zr16  1  0.00000000  0.46105000  0.38659000  1.0
  Zr  Zr17  1  0.46105000  0.00000000  0.38659000  1.0
  H  H18  1  0.37740000  0.52440000  0.60880000  1.0
  H  H19  1  0.33180000  0.52360000  0.68360000  1.0
  H  H20  1  0.32830000  0.45060000  0.84070000  1.0
  H  H21  1  0.37470000  0.45320000  0.76960000  1.0
  H  H22  1  0.27080000  0.48740000  0.71060000  1.0
  H  H23  1  0.31370000  0.48410000  0.93570000  1.0
  H  H24  1  0.47560000  0.85300000  0.60880000  1.0
  H  H25  1  0.47640000  0.80820000  0.68360000  1.0
  H  H26  1  0.54940000  0.87770000  0.84070000  1.0
  H  H27  1  0.54680000  0.92150000  0.76960000  1.0
  H  H28  1  0.51260000  0.78340000  0.71060000  1.0
  H  H29  1  0.51590000  0.82960000  0.93570000  1.0
  H  H30  1  0.14700000  0.62260000  0.60880000  1.0
  H  H31  1  0.19180000  0.66820000  0.68360000  1.0
  H  H32  1  0.12230000  0.67170000  0.84070000  1.0
  H  H33  1  0.07850000  0.62530000  0.76960000  1.0
  H  H34  1  0.21660000  0.72920000  0.71060000  1.0
  H  H35  1  0.17040000  0.68630000  0.93570000  1.0
  H  H36  1  0.62260000  0.47560000  0.60880000  1.0
  H  H37  1  0.66820000  0.47640000  0.68360000  1.0
  H  H38  1  0.67170000  0.54940000  0.84070000  1.0
  H  H39  1  0.62530000  0.54680000  0.76960000  1.0
  H  H40  1  0.72920000  0.51260000  0.71060000  1.0
  H  H41  1  0.68630000  0.51590000  0.93570000  1.0
  H  H42  1  0.52440000  0.14700000  0.60880000  1.0
  H  H43  1  0.52360000  0.19180000  0.68360000  1.0
  H  H44  1  0.45060000  0.12230000  0.84070000  1.0
  H  H45  1  0.45320000  0.07850000  0.76960000  1.0
  H  H46  1  0.48740000  0.21660000  0.71060000  1.0
  H  H47  1  0.48410000  0.17040000  0.93570000  1.0
  H  H48  1  0.85300000  0.37740000  0.60880000  1.0
  H  H49  1  0.80820000  0.33180000  0.68360000  1.0
  H  H50  1  0.87770000  0.32830000  0.84070000  1.0
  H  H51  1  0.92150000  0.37470000  0.76960000  1.0
  H  H52  1  0.78340000  0.27080000  0.71060000  1.0
  H  H53  1  0.82960000  0.31370000  0.93570000  1.0
  H  H54  1  0.52440000  0.37740000  0.39120000  1.0
  H  H55  1  0.52360000  0.33180000  0.31640000  1.0
  H  H56  1  0.45060000  0.32830000  0.15930000  1.0
  H  H57  1  0.45320000  0.37470000  0.23040000  1.0
  H  H58  1  0.48740000  0.27080000  0.28940000  1.0
  H  H59  1  0.48410000  0.31370000  0.06430000  1.0
  H  H60  1  0.85300000  0.47560000  0.39120000  1.0
  H  H61  1  0.80820000  0.47640000  0.31640000  1.0
  H  H62  1  0.87770000  0.54940000  0.15930000  1.0
  H  H63  1  0.92150000  0.54680000  0.23040000  1.0
  H  H64  1  0.78340000  0.51260000  0.28940000  1.0
  H  H65  1  0.82960000  0.51590000  0.06430000  1.0
  H  H66  1  0.62260000  0.14700000  0.39120000  1.0
  H  H67  1  0.66820000  0.19180000  0.31640000  1.0
  H  H68  1  0.67170000  0.12230000  0.15930000  1.0
  H  H69  1  0.62530000  0.07850000  0.23040000  1.0
  H  H70  1  0.72920000  0.21660000  0.28940000  1.0
  H  H71  1  0.68630000  0.17040000  0.06430000  1.0
  H  H72  1  0.47560000  0.62260000  0.39120000  1.0
  H  H73  1  0.47640000  0.66820000  0.31640000  1.0
  H  H74  1  0.54940000  0.67170000  0.15930000  1.0
  H  H75  1  0.54680000  0.62530000  0.23040000  1.0
  H  H76  1  0.51260000  0.72920000  0.28940000  1.0
  H  H77  1  0.51590000  0.68630000  0.06430000  1.0
  H  H78  1  0.14700000  0.52440000  0.39120000  1.0
  H  H79  1  0.19180000  0.52360000  0.31640000  1.0
  H  H80  1  0.12230000  0.45060000  0.15930000  1.0
  H  H81  1  0.07850000  0.45320000  0.23040000  1.0
  H  H82  1  0.21660000  0.48740000  0.28940000  1.0
  H  H83  1  0.17040000  0.48410000  0.06430000  1.0
  H  H84  1  0.37740000  0.85300000  0.39120000  1.0
  H  H85  1  0.33180000  0.80820000  0.31640000  1.0
  H  H86  1  0.32830000  0.87770000  0.15930000  1.0
  H  H87  1  0.37470000  0.92150000  0.23040000  1.0
  H  H88  1  0.27080000  0.78340000  0.28940000  1.0
  H  H89  1  0.31370000  0.82960000  0.06430000  1.0
  H  H90  1  0.62260000  0.47560000  0.39120000  1.0
  H  H91  1  0.66820000  0.47640000  0.31640000  1.0
  H  H92  1  0.67170000  0.54940000  0.15930000  1.0
  H  H93  1  0.62530000  0.54680000  0.23040000  1.0
  H  H94  1  0.72920000  0.51260000  0.28940000  1.0
  H  H95  1  0.68630000  0.51590000  0.06430000  1.0
  H  H96  1  0.52440000  0.14700000  0.39120000  1.0
  H  H97  1  0.52360000  0.19180000  0.31640000  1.0
  H  H98  1  0.45060000  0.12230000  0.15930000  1.0
  H  H99  1  0.45320000  0.07850000  0.23040000  1.0
  H  H100  1  0.48740000  0.21660000  0.28940000  1.0
  H  H101  1  0.48410000  0.17040000  0.06430000  1.0
  H  H102  1  0.85300000  0.37740000  0.39120000  1.0
  H  H103  1  0.80820000  0.33180000  0.31640000  1.0
  H  H104  1  0.87770000  0.32830000  0.15930000  1.0
  H  H105  1  0.92150000  0.37470000  0.23040000  1.0
  H  H106  1  0.78340000  0.27080000  0.28940000  1.0
  H  H107  1  0.82960000  0.31370000  0.06430000  1.0
  H  H108  1  0.37740000  0.52440000  0.39120000  1.0
  H  H109  1  0.33180000  0.52360000  0.31640000  1.0
  H  H110  1  0.32830000  0.45060000  0.15930000  1.0
  H  H111  1  0.37470000  0.45320000  0.23040000  1.0
  H  H112  1  0.27080000  0.48740000  0.28940000  1.0
  H  H113  1  0.31370000  0.48410000  0.06430000  1.0
  H  H114  1  0.47560000  0.85300000  0.39120000  1.0
  H  H115  1  0.47640000  0.80820000  0.31640000  1.0
  H  H116  1  0.54940000  0.87770000  0.15930000  1.0
  H  H117  1  0.54680000  0.92150000  0.23040000  1.0
  H  H118  1  0.51260000  0.78340000  0.28940000  1.0
  H  H119  1  0.51590000  0.82960000  0.06430000  1.0
  H  H120  1  0.14700000  0.62260000  0.39120000  1.0
  H  H121  1  0.19180000  0.66820000  0.31640000  1.0
  H  H122  1  0.12230000  0.67170000  0.15930000  1.0
  H  H123  1  0.07850000  0.62530000  0.23040000  1.0
  H  H124  1  0.21660000  0.72920000  0.28940000  1.0
  H  H125  1  0.17040000  0.68630000  0.06430000  1.0
  H  H126  1  0.47560000  0.62260000  0.60880000  1.0
  H  H127  1  0.47640000  0.66820000  0.68360000  1.0
  H  H128  1  0.54940000  0.67170000  0.84070000  1.0
  H  H129  1  0.54680000  0.62530000  0.76960000  1.0
  H  H130  1  0.51260000  0.72920000  0.71060000  1.0
  H  H131  1  0.51590000  0.68630000  0.93570000  1.0
  H  H132  1  0.14700000  0.52440000  0.60880000  1.0
  H  H133  1  0.19180000  0.52360000  0.68360000  1.0
  H  H134  1  0.12230000  0.45060000  0.84070000  1.0
  H  H135  1  0.07850000  0.45320000  0.76960000  1.0
  H  H136  1  0.21660000  0.48740000  0.71060000  1.0
  H  H137  1  0.17040000  0.48410000  0.93570000  1.0
  H  H138  1  0.37740000  0.85300000  0.60880000  1.0
  H  H139  1  0.33180000  0.80820000  0.68360000  1.0
  H  H140  1  0.32830000  0.87770000  0.84070000  1.0
  H  H141  1  0.37470000  0.92150000  0.76960000  1.0
  H  H142  1  0.27080000  0.78340000  0.71060000  1.0
  H  H143  1  0.31370000  0.82960000  0.93570000  1.0
  H  H144  1  0.52440000  0.37740000  0.60880000  1.0
  H  H145  1  0.52360000  0.33180000  0.68360000  1.0
  H  H146  1  0.45060000  0.32830000  0.84070000  1.0
  H  H147  1  0.45320000  0.37470000  0.76960000  1.0
  H  H148  1  0.48740000  0.27080000  0.71060000  1.0
  H  H149  1  0.48410000  0.31370000  0.93570000  1.0
  H  H150  1  0.85300000  0.47560000  0.60880000  1.0
  H  H151  1  0.80820000  0.47640000  0.68360000  1.0
  H  H152  1  0.87770000  0.54940000  0.84070000  1.0
  H  H153  1  0.92150000  0.54680000  0.76960000  1.0
  H  H154  1  0.78340000  0.51260000  0.71060000  1.0
  H  H155  1  0.82960000  0.51590000  0.93570000  1.0
  H  H156  1  0.62260000  0.14700000  0.60880000  1.0
  H  H157  1  0.66820000  0.19180000  0.68360000  1.0
  H  H158  1  0.67170000  0.12230000  0.84070000  1.0
  H  H159  1  0.62530000  0.07850000  0.76960000  1.0
  H  H160  1  0.72920000  0.21660000  0.71060000  1.0
  H  H161  1  0.68630000  0.17040000  0.93570000  1.0
  H  H162  1  0.53390000  0.57930000  0.50000000  1.0
  H  H163  1  0.42070000  0.95460000  0.50000000  1.0
  H  H164  1  0.04540000  0.46610000  0.50000000  1.0
  H  H165  1  0.46610000  0.42070000  0.50000000  1.0
  H  H166  1  0.57930000  0.04540000  0.50000000  1.0
  H  H167  1  0.95460000  0.53390000  0.50000000  1.0
  H  H168  1  0.57930000  0.53390000  0.50000000  1.0
  H  H169  1  0.95460000  0.42070000  0.50000000  1.0
  H  H170  1  0.46610000  0.04540000  0.50000000  1.0
  H  H171  1  0.42070000  0.46610000  0.50000000  1.0
  H  H172  1  0.04540000  0.57930000  0.50000000  1.0
  H  H173  1  0.53390000  0.95460000  0.50000000  1.0
  H  H174  1  0.47770000  0.52230000  0.33450000  1.0
  H  H175  1  0.47770000  0.95540000  0.33450000  1.0
  H  H176  1  0.04460000  0.52230000  0.33450000  1.0
  H  H177  1  0.52230000  0.47770000  0.33450000  1.0
  H  H178  1  0.52230000  0.04460000  0.33450000  1.0
  H  H179  1  0.95540000  0.47770000  0.33450000  1.0
  H  H180  1  0.52230000  0.47770000  0.66550000  1.0
  H  H181  1  0.95540000  0.47770000  0.66550000  1.0
  H  H182  1  0.52230000  0.04460000  0.66550000  1.0
  H  H183  1  0.47770000  0.52230000  0.66550000  1.0
  H  H184  1  0.04460000  0.52230000  0.66550000  1.0
  H  H185  1  0.47770000  0.95540000  0.66550000  1.0
  C  C186  1  0.41093000  0.49219000  0.63880000  1.0
  C  C187  1  0.38059000  0.48961000  0.68610000  1.0
  C  C188  1  0.36765000  0.51009000  0.65720000  1.0
  C  C189  1  0.34025000  0.50909000  0.70060000  1.0
  C  C190  1  0.32533000  0.48661000  0.76910000  1.0
  C  C191  1  0.33845000  0.46593000  0.79420000  1.0
  C  C192  1  0.36602000  0.46749000  0.75230000  1.0
  C  C193  1  0.29626000  0.48527000  0.81560000  1.0
  C  C194  1  0.27014000  0.48614000  0.77150000  1.0
  C  C195  1  0.26973000  0.48447000  0.95330000  1.0
  C  C196  1  0.29565000  0.48456000  0.90600000  1.0
  C  C197  1  0.50781000  0.91874000  0.63880000  1.0
  C  C198  1  0.51039000  0.89098000  0.68610000  1.0
  C  C199  1  0.48991000  0.85756000  0.65720000  1.0
  C  C200  1  0.49091000  0.83116000  0.70060000  1.0
  C  C201  1  0.51339000  0.83872000  0.76910000  1.0
  C  C202  1  0.53407000  0.87252000  0.79420000  1.0
  C  C203  1  0.53251000  0.89853000  0.75230000  1.0
  C  C204  1  0.51473000  0.81099000  0.81560000  1.0
  C  C205  1  0.51386000  0.78400000  0.77150000  1.0
  C  C206  1  0.51553000  0.78526000  0.95330000  1.0
  C  C207  1  0.51544000  0.81109000  0.90600000  1.0
  C  C208  1  0.08126000  0.58907000  0.63880000  1.0
  C  C209  1  0.10902000  0.61941000  0.68610000  1.0
  C  C210  1  0.14244000  0.63235000  0.65720000  1.0
  C  C211  1  0.16884000  0.65975000  0.70060000  1.0
  C  C212  1  0.16128000  0.67467000  0.76910000  1.0
  C  C213  1  0.12748000  0.66155000  0.79420000  1.0
  C  C214  1  0.10147000  0.63398000  0.75230000  1.0
  C  C215  1  0.18901000  0.70374000  0.81560000  1.0
  C  C216  1  0.21600000  0.72986000  0.77150000  1.0
  C  C217  1  0.21474000  0.73027000  0.95330000  1.0
  C  C218  1  0.18891000  0.70435000  0.90600000  1.0
  C  C219  1  0.58907000  0.50781000  0.63880000  1.0
  C  C220  1  0.61941000  0.51039000  0.68610000  1.0
  C  C221  1  0.63235000  0.48991000  0.65720000  1.0
  C  C222  1  0.65975000  0.49091000  0.70060000  1.0
  C  C223  1  0.67467000  0.51339000  0.76910000  1.0
  C  C224  1  0.66155000  0.53407000  0.79420000  1.0
  C  C225  1  0.63398000  0.53251000  0.75230000  1.0
  C  C226  1  0.70374000  0.51473000  0.81560000  1.0
  C  C227  1  0.72986000  0.51386000  0.77150000  1.0
  C  C228  1  0.73027000  0.51553000  0.95330000  1.0
  C  C229  1  0.70435000  0.51544000  0.90600000  1.0
  C  C230  1  0.49219000  0.08126000  0.63880000  1.0
  C  C231  1  0.48961000  0.10902000  0.68610000  1.0
  C  C232  1  0.51009000  0.14244000  0.65720000  1.0
  C  C233  1  0.50909000  0.16884000  0.70060000  1.0
  C  C234  1  0.48661000  0.16128000  0.76910000  1.0
  C  C235  1  0.46593000  0.12748000  0.79420000  1.0
  C  C236  1  0.46749000  0.10147000  0.75230000  1.0
  C  C237  1  0.48527000  0.18901000  0.81560000  1.0
  C  C238  1  0.48614000  0.21600000  0.77150000  1.0
  C  C239  1  0.48447000  0.21474000  0.95330000  1.0
  C  C240  1  0.48456000  0.18891000  0.90600000  1.0
  C  C241  1  0.91874000  0.41093000  0.63880000  1.0
  C  C242  1  0.89098000  0.38059000  0.68610000  1.0
  C  C243  1  0.85756000  0.36765000  0.65720000  1.0
  C  C244  1  0.83116000  0.34025000  0.70060000  1.0
  C  C245  1  0.83872000  0.32533000  0.76910000  1.0
  C  C246  1  0.87252000  0.33845000  0.79420000  1.0
  C  C247  1  0.89853000  0.36602000  0.75230000  1.0
  C  C248  1  0.81099000  0.29626000  0.81560000  1.0
  C  C249  1  0.78400000  0.27014000  0.77150000  1.0
  C  C250  1  0.78526000  0.26973000  0.95330000  1.0
  C  C251  1  0.81109000  0.29565000  0.90600000  1.0
  C  C252  1  0.49219000  0.41093000  0.36120000  1.0
  C  C253  1  0.48961000  0.38059000  0.31390000  1.0
  C  C254  1  0.51009000  0.36765000  0.34280000  1.0
  C  C255  1  0.50909000  0.34025000  0.29940000  1.0
  C  C256  1  0.48661000  0.32533000  0.23090000  1.0
  C  C257  1  0.46593000  0.33845000  0.20580000  1.0
  C  C258  1  0.46749000  0.36602000  0.24770000  1.0
  C  C259  1  0.48527000  0.29626000  0.18440000  1.0
  C  C260  1  0.48614000  0.27014000  0.22850000  1.0
  C  C261  1  0.48447000  0.26973000  0.04670000  1.0
  C  C262  1  0.48456000  0.29565000  0.09400000  1.0
  C  C263  1  0.91874000  0.50781000  0.36120000  1.0
  C  C264  1  0.89098000  0.51039000  0.31390000  1.0
  C  C265  1  0.85756000  0.48991000  0.34280000  1.0
  C  C266  1  0.83116000  0.49091000  0.29940000  1.0
  C  C267  1  0.83872000  0.51339000  0.23090000  1.0
  C  C268  1  0.87252000  0.53407000  0.20580000  1.0
  C  C269  1  0.89853000  0.53251000  0.24770000  1.0
  C  C270  1  0.81099000  0.51473000  0.18440000  1.0
  C  C271  1  0.78400000  0.51386000  0.22850000  1.0
  C  C272  1  0.78526000  0.51553000  0.04670000  1.0
  C  C273  1  0.81109000  0.51544000  0.09400000  1.0
  C  C274  1  0.58907000  0.08126000  0.36120000  1.0
  C  C275  1  0.61941000  0.10902000  0.31390000  1.0
  C  C276  1  0.63235000  0.14244000  0.34280000  1.0
  C  C277  1  0.65975000  0.16884000  0.29940000  1.0
  C  C278  1  0.67467000  0.16128000  0.23090000  1.0
  C  C279  1  0.66155000  0.12748000  0.20580000  1.0
  C  C280  1  0.63398000  0.10147000  0.24770000  1.0
  C  C281  1  0.70374000  0.18901000  0.18440000  1.0
  C  C282  1  0.72986000  0.21600000  0.22850000  1.0
  C  C283  1  0.73027000  0.21474000  0.04670000  1.0
  C  C284  1  0.70435000  0.18891000  0.09400000  1.0
  C  C285  1  0.50781000  0.58907000  0.36120000  1.0
  C  C286  1  0.51039000  0.61941000  0.31390000  1.0
  C  C287  1  0.48991000  0.63235000  0.34280000  1.0
  C  C288  1  0.49091000  0.65975000  0.29940000  1.0
  C  C289  1  0.51339000  0.67467000  0.23090000  1.0
  C  C290  1  0.53407000  0.66155000  0.20580000  1.0
  C  C291  1  0.53251000  0.63398000  0.24770000  1.0
  C  C292  1  0.51473000  0.70374000  0.18440000  1.0
  C  C293  1  0.51386000  0.72986000  0.22850000  1.0
  C  C294  1  0.51553000  0.73027000  0.04670000  1.0
  C  C295  1  0.51544000  0.70435000  0.09400000  1.0
  C  C296  1  0.08126000  0.49219000  0.36120000  1.0
  C  C297  1  0.10902000  0.48961000  0.31390000  1.0
  C  C298  1  0.14244000  0.51009000  0.34280000  1.0
  C  C299  1  0.16884000  0.50909000  0.29940000  1.0
  C  C300  1  0.16128000  0.48661000  0.23090000  1.0
  C  C301  1  0.12748000  0.46593000  0.20580000  1.0
  C  C302  1  0.10147000  0.46749000  0.24770000  1.0
  C  C303  1  0.18901000  0.48527000  0.18440000  1.0
  C  C304  1  0.21600000  0.48614000  0.22850000  1.0
  C  C305  1  0.21474000  0.48447000  0.04670000  1.0
  C  C306  1  0.18891000  0.48456000  0.09400000  1.0
  C  C307  1  0.41093000  0.91874000  0.36120000  1.0
  C  C308  1  0.38059000  0.89098000  0.31390000  1.0
  C  C309  1  0.36765000  0.85756000  0.34280000  1.0
  C  C310  1  0.34025000  0.83116000  0.29940000  1.0
  C  C311  1  0.32533000  0.83872000  0.23090000  1.0
  C  C312  1  0.33845000  0.87252000  0.20580000  1.0
  C  C313  1  0.36602000  0.89853000  0.24770000  1.0
  C  C314  1  0.29626000  0.81099000  0.18440000  1.0
  C  C315  1  0.27014000  0.78400000  0.22850000  1.0
  C  C316  1  0.26973000  0.78526000  0.04670000  1.0
  C  C317  1  0.29565000  0.81109000  0.09400000  1.0
  C  C318  1  0.58907000  0.50781000  0.36120000  1.0
  C  C319  1  0.61941000  0.51039000  0.31390000  1.0
  C  C320  1  0.63235000  0.48991000  0.34280000  1.0
  C  C321  1  0.65975000  0.49091000  0.29940000  1.0
  C  C322  1  0.67467000  0.51339000  0.23090000  1.0
  C  C323  1  0.66155000  0.53407000  0.20580000  1.0
  C  C324  1  0.63398000  0.53251000  0.24770000  1.0
  C  C325  1  0.70374000  0.51473000  0.18440000  1.0
  C  C326  1  0.72986000  0.51386000  0.22850000  1.0
  C  C327  1  0.73027000  0.51553000  0.04670000  1.0
  C  C328  1  0.70435000  0.51544000  0.09400000  1.0
  C  C329  1  0.49219000  0.08126000  0.36120000  1.0
  C  C330  1  0.48961000  0.10902000  0.31390000  1.0
  C  C331  1  0.51009000  0.14244000  0.34280000  1.0
  C  C332  1  0.50909000  0.16884000  0.29940000  1.0
  C  C333  1  0.48661000  0.16128000  0.23090000  1.0
  C  C334  1  0.46593000  0.12748000  0.20580000  1.0
  C  C335  1  0.46749000  0.10147000  0.24770000  1.0
  C  C336  1  0.48527000  0.18901000  0.18440000  1.0
  C  C337  1  0.48614000  0.21600000  0.22850000  1.0
  C  C338  1  0.48447000  0.21474000  0.04670000  1.0
  C  C339  1  0.48456000  0.18891000  0.09400000  1.0
  C  C340  1  0.91874000  0.41093000  0.36120000  1.0
  C  C341  1  0.89098000  0.38059000  0.31390000  1.0
  C  C342  1  0.85756000  0.36765000  0.34280000  1.0
  C  C343  1  0.83116000  0.34025000  0.29940000  1.0
  C  C344  1  0.83872000  0.32533000  0.23090000  1.0
  C  C345  1  0.87252000  0.33845000  0.20580000  1.0
  C  C346  1  0.89853000  0.36602000  0.24770000  1.0
  C  C347  1  0.81099000  0.29626000  0.18440000  1.0
  C  C348  1  0.78400000  0.27014000  0.22850000  1.0
  C  C349  1  0.78526000  0.26973000  0.04670000  1.0
  C  C350  1  0.81109000  0.29565000  0.09400000  1.0
  C  C351  1  0.41093000  0.49219000  0.36120000  1.0
  C  C352  1  0.38059000  0.48961000  0.31390000  1.0
  C  C353  1  0.36765000  0.51009000  0.34280000  1.0
  C  C354  1  0.34025000  0.50909000  0.29940000  1.0
  C  C355  1  0.32533000  0.48661000  0.23090000  1.0
  C  C356  1  0.33845000  0.46593000  0.20580000  1.0
  C  C357  1  0.36602000  0.46749000  0.24770000  1.0
  C  C358  1  0.29626000  0.48527000  0.18440000  1.0
  C  C359  1  0.27014000  0.48614000  0.22850000  1.0
  C  C360  1  0.26973000  0.48447000  0.04670000  1.0
  C  C361  1  0.29565000  0.48456000  0.09400000  1.0
  C  C362  1  0.50781000  0.91874000  0.36120000  1.0
  C  C363  1  0.51039000  0.89098000  0.31390000  1.0
  C  C364  1  0.48991000  0.85756000  0.34280000  1.0
  C  C365  1  0.49091000  0.83116000  0.29940000  1.0
  C  C366  1  0.51339000  0.83872000  0.23090000  1.0
  C  C367  1  0.53407000  0.87252000  0.20580000  1.0
  C  C368  1  0.53251000  0.89853000  0.24770000  1.0
  C  C369  1  0.51473000  0.81099000  0.18440000  1.0
  C  C370  1  0.51386000  0.78400000  0.22850000  1.0
  C  C371  1  0.51553000  0.78526000  0.04670000  1.0
  C  C372  1  0.51544000  0.81109000  0.09400000  1.0
  C  C373  1  0.08126000  0.58907000  0.36120000  1.0
  C  C374  1  0.10902000  0.61941000  0.31390000  1.0
  C  C375  1  0.14244000  0.63235000  0.34280000  1.0
  C  C376  1  0.16884000  0.65975000  0.29940000  1.0
  C  C377  1  0.16128000  0.67467000  0.23090000  1.0
  C  C378  1  0.12748000  0.66155000  0.20580000  1.0
  C  C379  1  0.10147000  0.63398000  0.24770000  1.0
  C  C380  1  0.18901000  0.70374000  0.18440000  1.0
  C  C381  1  0.21600000  0.72986000  0.22850000  1.0
  C  C382  1  0.21474000  0.73027000  0.04670000  1.0
  C  C383  1  0.18891000  0.70435000  0.09400000  1.0
  C  C384  1  0.50781000  0.58907000  0.63880000  1.0
  C  C385  1  0.51039000  0.61941000  0.68610000  1.0
  C  C386  1  0.48991000  0.63235000  0.65720000  1.0
  C  C387  1  0.49091000  0.65975000  0.70060000  1.0
  C  C388  1  0.51339000  0.67467000  0.76910000  1.0
  C  C389  1  0.53407000  0.66155000  0.79420000  1.0
  C  C390  1  0.53251000  0.63398000  0.75230000  1.0
  C  C391  1  0.51473000  0.70374000  0.81560000  1.0
  C  C392  1  0.51386000  0.72986000  0.77150000  1.0
  C  C393  1  0.51553000  0.73027000  0.95330000  1.0
  C  C394  1  0.51544000  0.70435000  0.90600000  1.0
  C  C395  1  0.08126000  0.49219000  0.63880000  1.0
  C  C396  1  0.10902000  0.48961000  0.68610000  1.0
  C  C397  1  0.14244000  0.51009000  0.65720000  1.0
  C  C398  1  0.16884000  0.50909000  0.70060000  1.0
  C  C399  1  0.16128000  0.48661000  0.76910000  1.0
  C  C400  1  0.12748000  0.46593000  0.79420000  1.0
  C  C401  1  0.10147000  0.46749000  0.75230000  1.0
  C  C402  1  0.18901000  0.48527000  0.81560000  1.0
  C  C403  1  0.21600000  0.48614000  0.77150000  1.0
  C  C404  1  0.21474000  0.48447000  0.95330000  1.0
  C  C405  1  0.18891000  0.48456000  0.90600000  1.0
  C  C406  1  0.41093000  0.91874000  0.63880000  1.0
  C  C407  1  0.38059000  0.89098000  0.68610000  1.0
  C  C408  1  0.36765000  0.85756000  0.65720000  1.0
  C  C409  1  0.34025000  0.83116000  0.70060000  1.0
  C  C410  1  0.32533000  0.83872000  0.76910000  1.0
  C  C411  1  0.33845000  0.87252000  0.79420000  1.0
  C  C412  1  0.36602000  0.89853000  0.75230000  1.0
  C  C413  1  0.29626000  0.81099000  0.81560000  1.0
  C  C414  1  0.27014000  0.78400000  0.77150000  1.0
  C  C415  1  0.26973000  0.78526000  0.95330000  1.0
  C  C416  1  0.29565000  0.81109000  0.90600000  1.0
  C  C417  1  0.49219000  0.41093000  0.63880000  1.0
  C  C418  1  0.48961000  0.38059000  0.68610000  1.0
  C  C419  1  0.51009000  0.36765000  0.65720000  1.0
  C  C420  1  0.50909000  0.34025000  0.70060000  1.0
  C  C421  1  0.48661000  0.32533000  0.76910000  1.0
  C  C422  1  0.46593000  0.33845000  0.79420000  1.0
  C  C423  1  0.46749000  0.36602000  0.75230000  1.0
  C  C424  1  0.48527000  0.29626000  0.81560000  1.0
  C  C425  1  0.48614000  0.27014000  0.77150000  1.0
  C  C426  1  0.48447000  0.26973000  0.95330000  1.0
  C  C427  1  0.48456000  0.29565000  0.90600000  1.0
  C  C428  1  0.91874000  0.50781000  0.63880000  1.0
  C  C429  1  0.89098000  0.51039000  0.68610000  1.0
  C  C430  1  0.85756000  0.48991000  0.65720000  1.0
  C  C431  1  0.83116000  0.49091000  0.70060000  1.0
  C  C432  1  0.83872000  0.51339000  0.76910000  1.0
  C  C433  1  0.87252000  0.53407000  0.79420000  1.0
  C  C434  1  0.89853000  0.53251000  0.75230000  1.0
  C  C435  1  0.81099000  0.51473000  0.81560000  1.0
  C  C436  1  0.78400000  0.51386000  0.77150000  1.0
  C  C437  1  0.78526000  0.51553000  0.95330000  1.0
  C  C438  1  0.81109000  0.51544000  0.90600000  1.0
  C  C439  1  0.58907000  0.08126000  0.63880000  1.0
  C  C440  1  0.61941000  0.10902000  0.68610000  1.0
  C  C441  1  0.63235000  0.14244000  0.65720000  1.0
  C  C442  1  0.65975000  0.16884000  0.70060000  1.0
  C  C443  1  0.67467000  0.16128000  0.76910000  1.0
  C  C444  1  0.66155000  0.12748000  0.79420000  1.0
  C  C445  1  0.63398000  0.10147000  0.75230000  1.0
  C  C446  1  0.70374000  0.18901000  0.81560000  1.0
  C  C447  1  0.72986000  0.21600000  0.77150000  1.0
  C  C448  1  0.73027000  0.21474000  0.95330000  1.0
  C  C449  1  0.70435000  0.18891000  0.90600000  1.0
  C  C450  1  0.24260000  0.48520000  0.81630000  1.0
  C  C451  1  0.24240000  0.48480000  0.90900000  1.0
  C  C452  1  0.51480000  0.75740000  0.81630000  1.0
  C  C453  1  0.51520000  0.75760000  0.90900000  1.0
  C  C454  1  0.24260000  0.75740000  0.81630000  1.0
  C  C455  1  0.24240000  0.75760000  0.90900000  1.0
  C  C456  1  0.75740000  0.51480000  0.81630000  1.0
  C  C457  1  0.75760000  0.51520000  0.90900000  1.0
  C  C458  1  0.48520000  0.24260000  0.81630000  1.0
  C  C459  1  0.48480000  0.24240000  0.90900000  1.0
  C  C460  1  0.75740000  0.24260000  0.81630000  1.0
  C  C461  1  0.75760000  0.24240000  0.90900000  1.0
  C  C462  1  0.48520000  0.24260000  0.18370000  1.0
  C  C463  1  0.48480000  0.24240000  0.09100000  1.0
  C  C464  1  0.75740000  0.51480000  0.18370000  1.0
  C  C465  1  0.75760000  0.51520000  0.09100000  1.0
  C  C466  1  0.75740000  0.24260000  0.18370000  1.0
  C  C467  1  0.75760000  0.24240000  0.09100000  1.0
  C  C468  1  0.51480000  0.75740000  0.18370000  1.0
  C  C469  1  0.51520000  0.75760000  0.09100000  1.0
  C  C470  1  0.24260000  0.48520000  0.18370000  1.0
  C  C471  1  0.24240000  0.48480000  0.09100000  1.0
  C  C472  1  0.24260000  0.75740000  0.18370000  1.0
  C  C473  1  0.24240000  0.75760000  0.09100000  1.0
  O  O474  1  0.42525000  0.51597000  0.58533000  1.0
  O  O475  1  0.41967000  0.47071000  0.65870000  1.0
  O  O476  1  0.48403000  0.90928000  0.58533000  1.0
  O  O477  1  0.52929000  0.94896000  0.65870000  1.0
  O  O478  1  0.09072000  0.57475000  0.58533000  1.0
  O  O479  1  0.05104000  0.58033000  0.65870000  1.0
  O  O480  1  0.57475000  0.48403000  0.58533000  1.0
  O  O481  1  0.58033000  0.52929000  0.65870000  1.0
  O  O482  1  0.51597000  0.09072000  0.58533000  1.0
  O  O483  1  0.47071000  0.05104000  0.65870000  1.0
  O  O484  1  0.90928000  0.42525000  0.58533000  1.0
  O  O485  1  0.94896000  0.41967000  0.65870000  1.0
  O  O486  1  0.51597000  0.42525000  0.41467000  1.0
  O  O487  1  0.47071000  0.41967000  0.34130000  1.0
  O  O488  1  0.90928000  0.48403000  0.41467000  1.0
  O  O489  1  0.94896000  0.52929000  0.34130000  1.0
  O  O490  1  0.57475000  0.09072000  0.41467000  1.0
  O  O491  1  0.58033000  0.05104000  0.34130000  1.0
  O  O492  1  0.48403000  0.57475000  0.41467000  1.0
  O  O493  1  0.52929000  0.58033000  0.34130000  1.0
  O  O494  1  0.09072000  0.51597000  0.41467000  1.0
  O  O495  1  0.05104000  0.47071000  0.34130000  1.0
  O  O496  1  0.42525000  0.90928000  0.41467000  1.0
  O  O497  1  0.41967000  0.94896000  0.34130000  1.0
  O  O498  1  0.57475000  0.48403000  0.41467000  1.0
  O  O499  1  0.58033000  0.52929000  0.34130000  1.0
  O  O500  1  0.51597000  0.09072000  0.41467000  1.0
  O  O501  1  0.47071000  0.05104000  0.34130000  1.0
  O  O502  1  0.90928000  0.42525000  0.41467000  1.0
  O  O503  1  0.94896000  0.41967000  0.34130000  1.0
  O  O504  1  0.42525000  0.51597000  0.41467000  1.0
  O  O505  1  0.41967000  0.47071000  0.34130000  1.0
  O  O506  1  0.48403000  0.90928000  0.41467000  1.0
  O  O507  1  0.52929000  0.94896000  0.34130000  1.0
  O  O508  1  0.09072000  0.57475000  0.41467000  1.0
  O  O509  1  0.05104000  0.58033000  0.34130000  1.0
  O  O510  1  0.48403000  0.57475000  0.58533000  1.0
  O  O511  1  0.52929000  0.58033000  0.65870000  1.0
  O  O512  1  0.09072000  0.51597000  0.58533000  1.0
  O  O513  1  0.05104000  0.47071000  0.65870000  1.0
  O  O514  1  0.42525000  0.90928000  0.58533000  1.0
  O  O515  1  0.41967000  0.94896000  0.65870000  1.0
  O  O516  1  0.51597000  0.42525000  0.58533000  1.0
  O  O517  1  0.47071000  0.41967000  0.65870000  1.0
  O  O518  1  0.90928000  0.48403000  0.58533000  1.0
  O  O519  1  0.94896000  0.52929000  0.65870000  1.0
  O  O520  1  0.57475000  0.09072000  0.58533000  1.0
  O  O521  1  0.58033000  0.05104000  0.65870000  1.0
  O  O522  1  0.52347000  0.55399000  0.50000000  1.0
  O  O523  1  0.44601000  0.96948000  0.50000000  1.0
  O  O524  1  0.03052000  0.47653000  0.50000000  1.0
  O  O525  1  0.47653000  0.44601000  0.50000000  1.0
  O  O526  1  0.55399000  0.03052000  0.50000000  1.0
  O  O527  1  0.96948000  0.52347000  0.50000000  1.0
  O  O528  1  0.55399000  0.52347000  0.50000000  1.0
  O  O529  1  0.96948000  0.44601000  0.50000000  1.0
  O  O530  1  0.47653000  0.03052000  0.50000000  1.0
  O  O531  1  0.44601000  0.47653000  0.50000000  1.0
  O  O532  1  0.03052000  0.55399000  0.50000000  1.0
  O  O533  1  0.52347000  0.96948000  0.50000000  1.0
  O  O534  1  0.48509000  0.51491000  0.38670000  1.0
  O  O535  1  0.48509000  0.97018000  0.38670000  1.0
  O  O536  1  0.02982000  0.51491000  0.38670000  1.0
  O  O537  1  0.51491000  0.48509000  0.38670000  1.0
  O  O538  1  0.51491000  0.02982000  0.38670000  1.0
  O  O539  1  0.97018000  0.48509000  0.38670000  1.0
  O  O540  1  0.51491000  0.48509000  0.61330000  1.0
  O  O541  1  0.97018000  0.48509000  0.61330000  1.0
  O  O542  1  0.51491000  0.02982000  0.61330000  1.0
  O  O543  1  0.48509000  0.51491000  0.61330000  1.0
  O  O544  1  0.02982000  0.51491000  0.61330000  1.0
  O  O545  1  0.48509000  0.97018000  0.61330000  1.0
