# generated using pymatgen
data_Cd3H24C38(N2O7)2
_symmetry_space_group_name_H-M   'P 1'
_cell_length_a   7.41060000
_cell_length_b   16.62200000
_cell_length_c   16.68300000
_cell_angle_alpha   104.24000000
_cell_angle_beta   101.49000000
_cell_angle_gamma   98.67000000
_symmetry_Int_Tables_number   1
_chemical_formula_structural   Cd3H24C38(N2O7)2
_chemical_formula_sum   'Cd6 H48 C76 N8 O28'
_cell_volume   1908.28874560
_cell_formula_units_Z   2
loop_
 _symmetry_equiv_pos_site_id
 _symmetry_equiv_pos_as_xyz
  1  'x, y, z'
loop_
 _atom_site_type_symbol
 _atom_site_label
 _atom_site_symmetry_multiplicity
 _atom_site_fract_x
 _atom_site_fract_y
 _atom_site_fract_z
 _atom_site_occupancy
  Cd  Cd0  1  0.48669000  0.48300000  0.62798000  1.0
  Cd  Cd1  1  0.31649000  0.95599000  0.54158000  1.0
  Cd  Cd2  1  0.50972000  0.50125000  0.88126000  1.0
  Cd  Cd3  1  0.51331000  0.51700000  0.37202000  1.0
  Cd  Cd4  1  0.68351000  0.04401000  0.45842000  1.0
  Cd  Cd5  1  0.49028000  0.49875000  0.11874000  1.0
  H  H6  1  0.39620000  0.65930000  0.57450000  1.0
  H  H7  1  0.49650000  0.80450000  0.66750000  1.0
  H  H8  1  0.70260000  0.64970000  0.79050000  1.0
  H  H9  1  0.63910000  0.91310000  0.78130000  1.0
  H  H10  1  0.82030000  0.02720000  0.88850000  1.0
  H  H11  1  0.02100000  0.87070000  0.01370000  1.0
  H  H12  1  0.84870000  0.75610000  0.90370000  1.0
  H  H13  1  0.25560000  0.31760000  0.73130000  1.0
  H  H14  1  0.22640000  0.17660000  0.74970000  1.0
  H  H15  1  0.58240000  0.33960000  0.95510000  1.0
  H  H16  1  0.59890000  0.24010000  0.02080000  1.0
  H  H17  1  0.63660000  0.13100000  0.08040000  1.0
  H  H18  1  0.32670000  0.96480000  0.86560000  1.0
  H  H19  1  0.29280000  0.07240000  0.80530000  1.0
  H  H20  1  0.99980000  0.51040000  0.63040000  1.0
  H  H21  1  0.24570000  0.72290000  0.81980000  1.0
  H  H22  1  0.90860000  0.73600000  0.60620000  1.0
  H  H23  1  0.90360000  0.85120000  0.68120000  1.0
  H  H24  1  0.02320000  0.93310000  0.75190000  1.0
  H  H25  1  0.03800000  0.25200000  0.92640000  1.0
  H  H26  1  0.68980000  0.24730000  0.70640000  1.0
  H  H27  1  0.97840000  0.47040000  0.87260000  1.0
  H  H28  1  0.63330000  0.04310000  0.73830000  1.0
  H  H29  1  0.57870000  0.12350000  0.71530000  1.0
  H  H30  1  0.60380000  0.34070000  0.42550000  1.0
  H  H31  1  0.50350000  0.19550000  0.33250000  1.0
  H  H32  1  0.29740000  0.35030000  0.20950000  1.0
  H  H33  1  0.36090000  0.08690000  0.21870000  1.0
  H  H34  1  0.17970000  0.97280000  0.11150000  1.0
  H  H35  1  0.97900000  0.12930000  0.98630000  1.0
  H  H36  1  0.15130000  0.24390000  0.09630000  1.0
  H  H37  1  0.74440000  0.68240000  0.26870000  1.0
  H  H38  1  0.77360000  0.82340000  0.25030000  1.0
  H  H39  1  0.41760000  0.66040000  0.04490000  1.0
  H  H40  1  0.40110000  0.75990000  0.97920000  1.0
  H  H41  1  0.36340000  0.86900000  0.91960000  1.0
  H  H42  1  0.67330000  0.03520000  0.13440000  1.0
  H  H43  1  0.70720000  0.92760000  0.19470000  1.0
  H  H44  1  0.00020000  0.48960000  0.36960000  1.0
  H  H45  1  0.75430000  0.27710000  0.18020000  1.0
  H  H46  1  0.09140000  0.26400000  0.39380000  1.0
  H  H47  1  0.09640000  0.14880000  0.31880000  1.0
  H  H48  1  0.97680000  0.06690000  0.24810000  1.0
  H  H49  1  0.96200000  0.74800000  0.07360000  1.0
  H  H50  1  0.31020000  0.75270000  0.29360000  1.0
  H  H51  1  0.02160000  0.52960000  0.12740000  1.0
  H  H52  1  0.36670000  0.95690000  0.26170000  1.0
  H  H53  1  0.42130000  0.87650000  0.28470000  1.0
  C  C54  1  0.47100000  0.67580000  0.63000000  1.0
  C  C55  1  0.52540000  0.75610000  0.68100000  1.0
  C  C56  1  0.63870000  0.67000000  0.74830000  1.0
  C  C57  1  0.73160000  0.82270000  0.82940000  1.0
  C  C58  1  0.71980000  0.90440000  0.82740000  1.0
  C  C59  1  0.82590000  0.97280000  0.89250000  1.0
  C  C60  1  0.94200000  0.96320000  0.96470000  1.0
  C  C61  1  0.94600000  0.87980000  0.96630000  1.0
  C  C62  1  0.84310000  0.81080000  0.90040000  1.0
  C  C63  1  0.31750000  0.30410000  0.77890000  1.0
  C  C64  1  0.30030000  0.22640000  0.78860000  1.0
  C  C65  1  0.49710000  0.31700000  0.90210000  1.0
  C  C66  1  0.43970000  0.16690000  0.90610000  1.0
  C  C67  1  0.54390000  0.18430000  0.98900000  1.0
  C  C68  1  0.56610000  0.11840000  0.02440000  1.0
  C  C69  1  0.48840000  0.03510000  0.98040000  1.0
  C  C70  1  0.38390000  0.02030000  0.89770000  1.0
  C  C71  1  0.36210000  0.08500000  0.86150000  1.0
  C  C72  1  0.25800000  0.55970000  0.77660000  1.0
  C  C73  1  0.78550000  0.57270000  0.52510000  1.0
  C  C74  1  0.92870000  0.61670000  0.60670000  1.0
  C  C75  1  0.02080000  0.56900000  0.65250000  1.0
  C  C76  1  0.14380000  0.60950000  0.73130000  1.0
  C  C77  1  0.16870000  0.69630000  0.76550000  1.0
  C  C78  1  0.07860000  0.74360000  0.71860000  1.0
  C  C79  1  0.96350000  0.70400000  0.63880000  1.0
  C  C80  1  0.03090000  0.88090000  0.71230000  1.0
  C  C81  1  0.14030000  0.90230000  0.64980000  1.0
  C  C82  1  0.70830000  0.41330000  0.73110000  1.0
  C  C83  1  0.19360000  0.41580000  0.98650000  1.0
  C  C84  1  0.03780000  0.36810000  0.91030000  1.0
  C  C85  1  0.98560000  0.28050000  0.88920000  1.0
  C  C86  1  0.85610000  0.23470000  0.81340000  1.0
  C  C87  1  0.77270000  0.27740000  0.75860000  1.0
  C  C88  1  0.81540000  0.36560000  0.78320000  1.0
  C  C89  1  0.94870000  0.41140000  0.85780000  1.0
  C  C90  1  0.68220000  0.09500000  0.72600000  1.0
  C  C91  1  0.75270000  0.07210000  0.64610000  1.0
  C  C92  1  0.52900000  0.32420000  0.37000000  1.0
  C  C93  1  0.47460000  0.24390000  0.31900000  1.0
  C  C94  1  0.36130000  0.33000000  0.25170000  1.0
  C  C95  1  0.26840000  0.17730000  0.17060000  1.0
  C  C96  1  0.28020000  0.09560000  0.17260000  1.0
  C  C97  1  0.17410000  0.02720000  0.10750000  1.0
  C  C98  1  0.05800000  0.03680000  0.03530000  1.0
  C  C99  1  0.05400000  0.12020000  0.03370000  1.0
  C  C100  1  0.15690000  0.18920000  0.09960000  1.0
  C  C101  1  0.68250000  0.69590000  0.22110000  1.0
  C  C102  1  0.69970000  0.77360000  0.21140000  1.0
  C  C103  1  0.50290000  0.68300000  0.09790000  1.0
  C  C104  1  0.56030000  0.83310000  0.09390000  1.0
  C  C105  1  0.45610000  0.81570000  0.01100000  1.0
  C  C106  1  0.43390000  0.88160000  0.97560000  1.0
  C  C107  1  0.51160000  0.96490000  0.01960000  1.0
  C  C108  1  0.61610000  0.97970000  0.10230000  1.0
  C  C109  1  0.63790000  0.91500000  0.13850000  1.0
  C  C110  1  0.74200000  0.44030000  0.22340000  1.0
  C  C111  1  0.21450000  0.42730000  0.47490000  1.0
  C  C112  1  0.07130000  0.38330000  0.39330000  1.0
  C  C113  1  0.97920000  0.43100000  0.34750000  1.0
  C  C114  1  0.85620000  0.39050000  0.26870000  1.0
  C  C115  1  0.83130000  0.30370000  0.23450000  1.0
  C  C116  1  0.92140000  0.25640000  0.28140000  1.0
  C  C117  1  0.03650000  0.29600000  0.36120000  1.0
  C  C118  1  0.96910000  0.11910000  0.28770000  1.0
  C  C119  1  0.85970000  0.09770000  0.35020000  1.0
  C  C120  1  0.29170000  0.58670000  0.26890000  1.0
  C  C121  1  0.80640000  0.58420000  0.01350000  1.0
  C  C122  1  0.96220000  0.63190000  0.08970000  1.0
  C  C123  1  0.01440000  0.71950000  0.11080000  1.0
  C  C124  1  0.14390000  0.76530000  0.18660000  1.0
  C  C125  1  0.22730000  0.72260000  0.24140000  1.0
  C  C126  1  0.18460000  0.63440000  0.21680000  1.0
  C  C127  1  0.05130000  0.58860000  0.14220000  1.0
  C  C128  1  0.31780000  0.90500000  0.27400000  1.0
  C  C129  1  0.24730000  0.92790000  0.35390000  1.0
  N  N130  1  0.54270000  0.62200000  0.67230000  1.0
  N  N131  1  0.63320000  0.75230000  0.75770000  1.0
  N  N132  1  0.44060000  0.36180000  0.85010000  1.0
  N  N133  1  0.41450000  0.23440000  0.86820000  1.0
  N  N134  1  0.45730000  0.37800000  0.32770000  1.0
  N  N135  1  0.36680000  0.24770000  0.24230000  1.0
  N  N136  1  0.55940000  0.63820000  0.14990000  1.0
  N  N137  1  0.58550000  0.76560000  0.13180000  1.0
  O  O138  1  0.69650000  0.49970000  0.51470000  1.0
  O  O139  1  0.75300000  0.61260000  0.46930000  1.0
  O  O140  1  0.27900000  0.48880000  0.73560000  1.0
  O  O141  1  0.33740000  0.59420000  0.85470000  1.0
  O  O142  1  0.11580000  0.82930000  0.75920000  1.0
  O  O143  1  0.31300000  0.92610000  0.67310000  1.0
  O  O144  1  0.04560000  0.89790000  0.57600000  1.0
  O  O145  1  0.68510000  0.48510000  0.76710000  1.0
  O  O146  1  0.64300000  0.37940000  0.65200000  1.0
  O  O147  1  0.23580000  0.38390000  0.04630000  1.0
  O  O148  1  0.28550000  0.48690000  0.98690000  1.0
  O  O149  1  0.82220000  0.14840000  0.79950000  1.0
  O  O150  1  0.91390000  0.10030000  0.64510000  1.0
  O  O151  1  0.62890000  0.02280000  0.58050000  1.0
  O  O152  1  0.30350000  0.50030000  0.48530000  1.0
  O  O153  1  0.24700000  0.38740000  0.53070000  1.0
  O  O154  1  0.72100000  0.51120000  0.26440000  1.0
  O  O155  1  0.66260000  0.40580000  0.14530000  1.0
  O  O156  1  0.88420000  0.17070000  0.24080000  1.0
  O  O157  1  0.68700000  0.07390000  0.32690000  1.0
  O  O158  1  0.95440000  0.10210000  0.42400000  1.0
  O  O159  1  0.31490000  0.51490000  0.23290000  1.0
  O  O160  1  0.35700000  0.62060000  0.34800000  1.0
  O  O161  1  0.76420000  0.61610000  0.95370000  1.0
  O  O162  1  0.71450000  0.51310000  0.01310000  1.0
  O  O163  1  0.17780000  0.85160000  0.20050000  1.0
  O  O164  1  0.08610000  0.89970000  0.35490000  1.0
  O  O165  1  0.37110000  0.97720000  0.41950000  1.0
