# generated using pymatgen
data_ZnH2(CO2)2
_symmetry_space_group_name_H-M   'P 1'
_cell_length_a   11.34070000
_cell_length_b   9.78560000
_cell_length_c   14.43340000
_cell_angle_alpha   90.00000000
_cell_angle_beta   91.44900000
_cell_angle_gamma   90.00000000
_symmetry_Int_Tables_number   1
_chemical_formula_structural   ZnH2(CO2)2
_chemical_formula_sum   'Zn12 H24 C24 O48'
_cell_volume   1601.24236613
_cell_formula_units_Z   12
loop_
 _symmetry_equiv_pos_site_id
 _symmetry_equiv_pos_as_xyz
  1  'x, y, z'
loop_
 _atom_site_type_symbol
 _atom_site_label
 _atom_site_symmetry_multiplicity
 _atom_site_fract_x
 _atom_site_fract_y
 _atom_site_fract_z
 _atom_site_occupancy
  Zn  Zn0  1  0.24321000  0.08135000  0.36880000  1.0
  Zn  Zn1  1  0.24008000  0.39482000  0.31394000  1.0
  Zn  Zn2  1  0.25679000  0.58135000  0.13120000  1.0
  Zn  Zn3  1  0.25992000  0.89482000  0.18606000  1.0
  Zn  Zn4  1  0.75679000  0.91865000  0.63120000  1.0
  Zn  Zn5  1  0.75992000  0.60518000  0.68606000  1.0
  Zn  Zn6  1  0.74321000  0.41865000  0.86880000  1.0
  Zn  Zn7  1  0.74008000  0.10518000  0.81394000  1.0
  Zn  Zn8  1  0.50000000  0.00000000  0.50000000  1.0
  Zn  Zn9  1  0.00000000  0.50000000  0.00000000  1.0
  Zn  Zn10  1  0.00000000  0.00000000  0.50000000  1.0
  Zn  Zn11  1  0.50000000  0.50000000  0.00000000  1.0
  H  H12  1  0.29900000  0.84600000  0.57000000  1.0
  H  H13  1  0.00000000  0.28900000  0.48700000  1.0
  H  H14  1  0.13600000  0.25000000  0.12900000  1.0
  H  H15  1  0.43100000  0.38500000  0.45500000  1.0
  H  H16  1  0.02400000  0.80900000  0.26700000  1.0
  H  H17  1  0.51700000  0.96600000  0.23100000  1.0
  H  H18  1  0.20100000  0.34600000  0.93000000  1.0
  H  H19  1  0.50000000  0.78900000  0.01300000  1.0
  H  H20  1  0.36400000  0.75000000  0.37100000  1.0
  H  H21  1  0.06900000  0.88500000  0.04500000  1.0
  H  H22  1  0.47600000  0.30900000  0.23300000  1.0
  H  H23  1  0.98300000  0.46600000  0.26900000  1.0
  H  H24  1  0.70100000  0.15400000  0.43000000  1.0
  H  H25  1  0.00000000  0.71100000  0.51300000  1.0
  H  H26  1  0.86400000  0.75000000  0.87100000  1.0
  H  H27  1  0.56900000  0.61500000  0.54500000  1.0
  H  H28  1  0.97600000  0.19100000  0.73300000  1.0
  H  H29  1  0.48300000  0.03400000  0.76900000  1.0
  H  H30  1  0.79900000  0.65400000  0.07000000  1.0
  H  H31  1  0.50000000  0.21100000  0.98700000  1.0
  H  H32  1  0.63600000  0.25000000  0.62900000  1.0
  H  H33  1  0.93100000  0.11500000  0.95500000  1.0
  H  H34  1  0.52400000  0.69100000  0.76700000  1.0
  H  H35  1  0.01700000  0.53400000  0.73100000  1.0
  C  C36  1  0.25680000  0.89450000  0.52960000  1.0
  C  C37  1  0.06940000  0.28070000  0.44890000  1.0
  C  C38  1  0.16900000  0.17550000  0.16970000  1.0
  C  C39  1  0.42410000  0.28960000  0.45210000  1.0
  C  C40  1  0.04510000  0.87410000  0.31130000  1.0
  C  C41  1  0.48030000  0.98730000  0.28780000  1.0
  C  C42  1  0.24320000  0.39450000  0.97040000  1.0
  C  C43  1  0.43060000  0.78070000  0.05110000  1.0
  C  C44  1  0.33100000  0.67550000  0.33030000  1.0
  C  C45  1  0.07590000  0.78960000  0.04790000  1.0
  C  C46  1  0.45490000  0.37410000  0.18870000  1.0
  C  C47  1  0.01970000  0.48730000  0.21220000  1.0
  C  C48  1  0.74320000  0.10550000  0.47040000  1.0
  C  C49  1  0.93060000  0.71930000  0.55110000  1.0
  C  C50  1  0.83100000  0.82450000  0.83030000  1.0
  C  C51  1  0.57590000  0.71040000  0.54790000  1.0
  C  C52  1  0.95490000  0.12590000  0.68870000  1.0
  C  C53  1  0.51970000  0.01270000  0.71220000  1.0
  C  C54  1  0.75680000  0.60550000  0.02960000  1.0
  C  C55  1  0.56940000  0.21930000  0.94890000  1.0
  C  C56  1  0.66900000  0.32450000  0.66970000  1.0
  C  C57  1  0.92410000  0.21040000  0.95210000  1.0
  C  C58  1  0.54510000  0.62590000  0.81130000  1.0
  C  C59  1  0.98030000  0.51270000  0.78780000  1.0
  O  O60  1  0.31540000  0.97350000  0.47709000  1.0
  O  O61  1  0.14970000  0.88730000  0.53343000  1.0
  O  O62  1  0.10170000  0.15730000  0.44056000  1.0
  O  O63  1  0.11120000  0.38060000  0.40887000  1.0
  O  O64  1  0.18990000  0.20270000  0.25450000  1.0
  O  O65  1  0.18520000  0.06480000  0.13054000  1.0
  O  O66  1  0.34610000  0.25930000  0.39118000  1.0
  O  O67  1  0.48160000  0.21000000  0.50073000  1.0
  O  O68  1  0.14910000  0.91890000  0.30478000  1.0
  O  O69  1  0.97630000  0.89910000  0.37430000  1.0
  O  O70  1  0.37000000  0.99730000  0.28065000  1.0
  O  O71  1  0.54060000  0.99970000  0.35956000  1.0
  O  O72  1  0.18460000  0.47350000  0.02291000  1.0
  O  O73  1  0.35030000  0.38730000  0.96657000  1.0
  O  O74  1  0.39830000  0.65730000  0.05944000  1.0
  O  O75  1  0.38880000  0.88060000  0.09113000  1.0
  O  O76  1  0.31010000  0.70270000  0.24550000  1.0
  O  O77  1  0.31480000  0.56480000  0.36946000  1.0
  O  O78  1  0.15390000  0.75930000  0.10882000  1.0
  O  O79  1  0.01840000  0.71000000  0.99927000  1.0
  O  O80  1  0.35090000  0.41890000  0.19522000  1.0
  O  O81  1  0.52370000  0.39910000  0.12570000  1.0
  O  O82  1  0.13000000  0.49730000  0.21935000  1.0
  O  O83  1  0.95940000  0.49970000  0.14044000  1.0
  O  O84  1  0.68460000  0.02650000  0.52291000  1.0
  O  O85  1  0.85030000  0.11270000  0.46657000  1.0
  O  O86  1  0.89830000  0.84270000  0.55944000  1.0
  O  O87  1  0.88880000  0.61940000  0.59113000  1.0
  O  O88  1  0.81010000  0.79730000  0.74550000  1.0
  O  O89  1  0.81480000  0.93520000  0.86946000  1.0
  O  O90  1  0.65390000  0.74070000  0.60882000  1.0
  O  O91  1  0.51840000  0.79000000  0.49927000  1.0
  O  O92  1  0.85090000  0.08110000  0.69522000  1.0
  O  O93  1  0.02370000  0.10090000  0.62570000  1.0
  O  O94  1  0.63000000  0.00270000  0.71935000  1.0
  O  O95  1  0.45940000  0.00030000  0.64044000  1.0
  O  O96  1  0.81540000  0.52650000  0.97709000  1.0
  O  O97  1  0.64970000  0.61270000  0.03343000  1.0
  O  O98  1  0.60170000  0.34270000  0.94056000  1.0
  O  O99  1  0.61120000  0.11940000  0.90887000  1.0
  O  O100  1  0.68990000  0.29730000  0.75450000  1.0
  O  O101  1  0.68520000  0.43520000  0.63054000  1.0
  O  O102  1  0.84610000  0.24070000  0.89118000  1.0
  O  O103  1  0.98160000  0.29000000  0.00073000  1.0
  O  O104  1  0.64910000  0.58110000  0.80478000  1.0
  O  O105  1  0.47630000  0.60090000  0.87430000  1.0
  O  O106  1  0.87000000  0.50270000  0.78065000  1.0
  O  O107  1  0.04060000  0.50030000  0.85956000  1.0
