# generated using pymatgen
data_ZnH12C18(NO2)2
_symmetry_space_group_name_H-M   'P 1'
_cell_length_a   27.75290000
_cell_length_b   27.75290000
_cell_length_c   3.60220000
_cell_angle_alpha   90.00000000
_cell_angle_beta   90.00000000
_cell_angle_gamma   90.00000000
_symmetry_Int_Tables_number   1
_chemical_formula_structural   ZnH12C18(NO2)2
_chemical_formula_sum   'Zn8 H96 C144 N16 O32'
_cell_volume   2774.49894188
_cell_formula_units_Z   8
loop_
 _symmetry_equiv_pos_site_id
 _symmetry_equiv_pos_as_xyz
  1  'x, y, z'
loop_
 _atom_site_type_symbol
 _atom_site_label
 _atom_site_symmetry_multiplicity
 _atom_site_fract_x
 _atom_site_fract_y
 _atom_site_fract_z
 _atom_site_occupancy
  Zn  Zn0  1  0.28445000  0.21407000  0.85190000  1.0
  Zn  Zn1  1  0.71555000  0.78593000  0.85190000  1.0
  Zn  Zn2  1  0.71407000  0.21555000  0.64810000  1.0
  Zn  Zn3  1  0.28593000  0.78445000  0.64810000  1.0
  Zn  Zn4  1  0.78445000  0.71407000  0.35190000  1.0
  Zn  Zn5  1  0.21555000  0.28593000  0.35190000  1.0
  Zn  Zn6  1  0.21407000  0.71555000  0.14810000  1.0
  Zn  Zn7  1  0.78593000  0.28445000  0.14810000  1.0
  H  H8  1  0.31120000  0.11110000  0.05610000  1.0
  H  H9  1  0.18070000  0.18570000  0.41000000  1.0
  H  H10  1  0.10230000  0.18130000  0.12540000  1.0
  H  H11  1  0.03380000  0.13890000  0.95430000  1.0
  H  H12  1  0.02890000  0.05750000  0.11000000  1.0
  H  H13  1  0.09080000  0.02000000  0.42230000  1.0
  H  H14  1  0.16880000  0.02190000  0.71660000  1.0
  H  H15  1  0.22150000  0.92380000  0.39460000  1.0
  H  H16  1  0.36070000  0.95340000  0.18750000  1.0
  H  H17  1  0.33910000  0.02910000  0.96940000  1.0
  H  H18  1  0.19990000  0.99940000  0.17650000  1.0
  H  H19  1  0.30770000  0.23390000  0.23710000  1.0
  H  H20  1  0.68880000  0.88890000  0.05610000  1.0
  H  H21  1  0.81930000  0.81430000  0.41000000  1.0
  H  H22  1  0.89770000  0.81870000  0.12540000  1.0
  H  H23  1  0.96620000  0.86110000  0.95430000  1.0
  H  H24  1  0.97110000  0.94250000  0.11000000  1.0
  H  H25  1  0.90920000  0.98000000  0.42230000  1.0
  H  H26  1  0.83120000  0.97810000  0.71660000  1.0
  H  H27  1  0.77850000  0.07620000  0.39460000  1.0
  H  H28  1  0.63930000  0.04660000  0.18750000  1.0
  H  H29  1  0.66090000  0.97090000  0.96940000  1.0
  H  H30  1  0.80010000  0.00060000  0.17650000  1.0
  H  H31  1  0.69230000  0.76610000  0.23710000  1.0
  H  H32  1  0.61110000  0.18880000  0.44390000  1.0
  H  H33  1  0.68570000  0.31930000  0.09000000  1.0
  H  H34  1  0.68130000  0.39770000  0.37460000  1.0
  H  H35  1  0.63890000  0.46620000  0.54570000  1.0
  H  H36  1  0.55750000  0.47110000  0.39000000  1.0
  H  H37  1  0.52000000  0.40920000  0.07770000  1.0
  H  H38  1  0.52190000  0.33120000  0.78340000  1.0
  H  H39  1  0.42380000  0.27850000  0.10540000  1.0
  H  H40  1  0.45340000  0.13930000  0.31250000  1.0
  H  H41  1  0.52910000  0.16090000  0.53060000  1.0
  H  H42  1  0.49940000  0.30010000  0.32350000  1.0
  H  H43  1  0.73390000  0.19230000  0.26290000  1.0
  H  H44  1  0.38890000  0.81120000  0.44390000  1.0
  H  H45  1  0.31430000  0.68070000  0.09000000  1.0
  H  H46  1  0.31870000  0.60230000  0.37460000  1.0
  H  H47  1  0.36110000  0.53380000  0.54570000  1.0
  H  H48  1  0.44250000  0.52890000  0.39000000  1.0
  H  H49  1  0.48000000  0.59080000  0.07770000  1.0
  H  H50  1  0.47810000  0.66880000  0.78340000  1.0
  H  H51  1  0.57620000  0.72150000  0.10540000  1.0
  H  H52  1  0.54660000  0.86070000  0.31250000  1.0
  H  H53  1  0.47090000  0.83910000  0.53060000  1.0
  H  H54  1  0.50060000  0.69990000  0.32350000  1.0
  H  H55  1  0.26610000  0.80770000  0.26290000  1.0
  H  H56  1  0.81120000  0.61110000  0.55610000  1.0
  H  H57  1  0.68070000  0.68570000  0.91000000  1.0
  H  H58  1  0.60230000  0.68130000  0.62540000  1.0
  H  H59  1  0.53380000  0.63890000  0.45430000  1.0
  H  H60  1  0.52890000  0.55750000  0.61000000  1.0
  H  H61  1  0.59080000  0.52000000  0.92230000  1.0
  H  H62  1  0.66880000  0.52190000  0.21660000  1.0
  H  H63  1  0.72150000  0.42380000  0.89460000  1.0
  H  H64  1  0.86070000  0.45340000  0.68750000  1.0
  H  H65  1  0.83910000  0.52910000  0.46940000  1.0
  H  H66  1  0.69990000  0.49940000  0.67650000  1.0
  H  H67  1  0.80770000  0.73390000  0.73710000  1.0
  H  H68  1  0.18880000  0.38890000  0.55610000  1.0
  H  H69  1  0.31930000  0.31430000  0.91000000  1.0
  H  H70  1  0.39770000  0.31870000  0.62540000  1.0
  H  H71  1  0.46620000  0.36110000  0.45430000  1.0
  H  H72  1  0.47110000  0.44250000  0.61000000  1.0
  H  H73  1  0.40920000  0.48000000  0.92230000  1.0
  H  H74  1  0.33120000  0.47810000  0.21660000  1.0
  H  H75  1  0.27850000  0.57620000  0.89460000  1.0
  H  H76  1  0.13930000  0.54660000  0.68750000  1.0
  H  H77  1  0.16090000  0.47090000  0.46940000  1.0
  H  H78  1  0.30010000  0.50060000  0.67650000  1.0
  H  H79  1  0.19230000  0.26610000  0.73710000  1.0
  H  H80  1  0.11110000  0.68880000  0.94390000  1.0
  H  H81  1  0.18570000  0.81930000  0.59000000  1.0
  H  H82  1  0.18130000  0.89770000  0.87460000  1.0
  H  H83  1  0.13890000  0.96620000  0.04570000  1.0
  H  H84  1  0.05750000  0.97110000  0.89000000  1.0
  H  H85  1  0.02000000  0.90920000  0.57770000  1.0
  H  H86  1  0.02190000  0.83120000  0.28340000  1.0
  H  H87  1  0.92380000  0.77850000  0.60540000  1.0
  H  H88  1  0.95340000  0.63930000  0.81250000  1.0
  H  H89  1  0.02910000  0.66090000  0.03060000  1.0
  H  H90  1  0.99940000  0.80010000  0.82350000  1.0
  H  H91  1  0.23390000  0.69230000  0.76290000  1.0
  H  H92  1  0.88890000  0.31120000  0.94390000  1.0
  H  H93  1  0.81430000  0.18070000  0.59000000  1.0
  H  H94  1  0.81870000  0.10230000  0.87460000  1.0
  H  H95  1  0.86110000  0.03380000  0.04570000  1.0
  H  H96  1  0.94250000  0.02890000  0.89000000  1.0
  H  H97  1  0.98000000  0.09080000  0.57770000  1.0
  H  H98  1  0.97810000  0.16880000  0.28340000  1.0
  H  H99  1  0.07620000  0.22150000  0.60540000  1.0
  H  H100  1  0.04660000  0.36070000  0.81250000  1.0
  H  H101  1  0.97090000  0.33910000  0.03060000  1.0
  H  H102  1  0.00060000  0.19990000  0.82350000  1.0
  H  H103  1  0.76610000  0.30770000  0.76290000  1.0
  C  C104  1  0.28100000  0.10900000  0.94600000  1.0
  C  C105  1  0.21490000  0.12980000  0.65500000  1.0
  C  C106  1  0.17820000  0.15320000  0.46900000  1.0
  C  C107  1  0.13740000  0.12700000  0.37300000  1.0
  C  C108  1  0.09990000  0.14880000  0.18500000  1.0
  C  C109  1  0.05870000  0.12370000  0.08100000  1.0
  C  C110  1  0.05610000  0.07510000  0.17500000  1.0
  C  C111  1  0.09340000  0.05260000  0.36300000  1.0
  C  C112  1  0.13480000  0.07810000  0.46600000  1.0
  C  C113  1  0.17160000  0.05420000  0.65200000  1.0
  C  C114  1  0.21270000  0.08050000  0.73700000  1.0
  C  C115  1  0.24510000  0.94490000  0.30900000  1.0
  C  C116  1  0.29320000  0.93110000  0.31300000  1.0
  C  C117  1  0.32850000  0.96270000  0.18500000  1.0
  C  C118  1  0.31550000  0.00800000  0.05500000  1.0
  C  C119  1  0.26740000  0.02180000  0.05100000  1.0
  C  C120  1  0.23220000  0.99020000  0.17900000  1.0
  C  C121  1  0.30130000  0.87970000  0.44000000  1.0
  C  C122  1  0.71900000  0.89100000  0.94600000  1.0
  C  C123  1  0.78510000  0.87020000  0.65500000  1.0
  C  C124  1  0.82180000  0.84680000  0.46900000  1.0
  C  C125  1  0.86260000  0.87300000  0.37300000  1.0
  C  C126  1  0.90010000  0.85120000  0.18500000  1.0
  C  C127  1  0.94130000  0.87630000  0.08100000  1.0
  C  C128  1  0.94390000  0.92490000  0.17500000  1.0
  C  C129  1  0.90660000  0.94740000  0.36300000  1.0
  C  C130  1  0.86520000  0.92190000  0.46600000  1.0
  C  C131  1  0.82840000  0.94580000  0.65200000  1.0
  C  C132  1  0.78730000  0.91950000  0.73700000  1.0
  C  C133  1  0.75490000  0.05510000  0.30900000  1.0
  C  C134  1  0.70680000  0.06890000  0.31300000  1.0
  C  C135  1  0.67150000  0.03730000  0.18500000  1.0
  C  C136  1  0.68450000  0.99200000  0.05500000  1.0
  C  C137  1  0.73260000  0.97820000  0.05100000  1.0
  C  C138  1  0.76780000  0.00980000  0.17900000  1.0
  C  C139  1  0.69870000  0.12030000  0.44000000  1.0
  C  C140  1  0.60900000  0.21900000  0.55400000  1.0
  C  C141  1  0.62980000  0.28510000  0.84500000  1.0
  C  C142  1  0.65320000  0.32180000  0.03100000  1.0
  C  C143  1  0.62700000  0.36260000  0.12700000  1.0
  C  C144  1  0.64880000  0.40010000  0.31500000  1.0
  C  C145  1  0.62370000  0.44130000  0.41900000  1.0
  C  C146  1  0.57510000  0.44390000  0.32500000  1.0
  C  C147  1  0.55260000  0.40660000  0.13700000  1.0
  C  C148  1  0.57810000  0.36520000  0.03400000  1.0
  C  C149  1  0.55420000  0.32840000  0.84800000  1.0
  C  C150  1  0.58050000  0.28730000  0.76300000  1.0
  C  C151  1  0.44490000  0.25490000  0.19100000  1.0
  C  C152  1  0.43110000  0.20680000  0.18700000  1.0
  C  C153  1  0.46270000  0.17150000  0.31500000  1.0
  C  C154  1  0.50800000  0.18450000  0.44500000  1.0
  C  C155  1  0.52180000  0.23260000  0.44900000  1.0
  C  C156  1  0.49020000  0.26780000  0.32100000  1.0
  C  C157  1  0.37970000  0.19870000  0.06000000  1.0
  C  C158  1  0.39100000  0.78100000  0.55400000  1.0
  C  C159  1  0.37020000  0.71490000  0.84500000  1.0
  C  C160  1  0.34680000  0.67820000  0.03100000  1.0
  C  C161  1  0.37300000  0.63740000  0.12700000  1.0
  C  C162  1  0.35120000  0.59990000  0.31500000  1.0
  C  C163  1  0.37630000  0.55870000  0.41900000  1.0
  C  C164  1  0.42490000  0.55610000  0.32500000  1.0
  C  C165  1  0.44740000  0.59340000  0.13700000  1.0
  C  C166  1  0.42190000  0.63480000  0.03400000  1.0
  C  C167  1  0.44580000  0.67160000  0.84800000  1.0
  C  C168  1  0.41950000  0.71270000  0.76300000  1.0
  C  C169  1  0.55510000  0.74510000  0.19100000  1.0
  C  C170  1  0.56890000  0.79320000  0.18700000  1.0
  C  C171  1  0.53730000  0.82850000  0.31500000  1.0
  C  C172  1  0.49200000  0.81550000  0.44500000  1.0
  C  C173  1  0.47820000  0.76740000  0.44900000  1.0
  C  C174  1  0.50980000  0.73220000  0.32100000  1.0
  C  C175  1  0.62030000  0.80130000  0.06000000  1.0
  C  C176  1  0.78100000  0.60900000  0.44600000  1.0
  C  C177  1  0.71490000  0.62980000  0.15500000  1.0
  C  C178  1  0.67820000  0.65320000  0.96900000  1.0
  C  C179  1  0.63740000  0.62700000  0.87300000  1.0
  C  C180  1  0.59990000  0.64880000  0.68500000  1.0
  C  C181  1  0.55870000  0.62370000  0.58100000  1.0
  C  C182  1  0.55610000  0.57510000  0.67500000  1.0
  C  C183  1  0.59340000  0.55260000  0.86300000  1.0
  C  C184  1  0.63480000  0.57810000  0.96600000  1.0
  C  C185  1  0.67160000  0.55420000  0.15200000  1.0
  C  C186  1  0.71270000  0.58050000  0.23700000  1.0
  C  C187  1  0.74510000  0.44490000  0.80900000  1.0
  C  C188  1  0.79320000  0.43110000  0.81300000  1.0
  C  C189  1  0.82850000  0.46270000  0.68500000  1.0
  C  C190  1  0.81550000  0.50800000  0.55500000  1.0
  C  C191  1  0.76740000  0.52180000  0.55100000  1.0
  C  C192  1  0.73220000  0.49020000  0.67900000  1.0
  C  C193  1  0.80130000  0.37970000  0.94000000  1.0
  C  C194  1  0.21900000  0.39100000  0.44600000  1.0
  C  C195  1  0.28510000  0.37020000  0.15500000  1.0
  C  C196  1  0.32180000  0.34680000  0.96900000  1.0
  C  C197  1  0.36260000  0.37300000  0.87300000  1.0
  C  C198  1  0.40010000  0.35120000  0.68500000  1.0
  C  C199  1  0.44130000  0.37630000  0.58100000  1.0
  C  C200  1  0.44390000  0.42490000  0.67500000  1.0
  C  C201  1  0.40660000  0.44740000  0.86300000  1.0
  C  C202  1  0.36520000  0.42190000  0.96600000  1.0
  C  C203  1  0.32840000  0.44580000  0.15200000  1.0
  C  C204  1  0.28730000  0.41950000  0.23700000  1.0
  C  C205  1  0.25490000  0.55510000  0.80900000  1.0
  C  C206  1  0.20680000  0.56890000  0.81300000  1.0
  C  C207  1  0.17150000  0.53730000  0.68500000  1.0
  C  C208  1  0.18450000  0.49200000  0.55500000  1.0
  C  C209  1  0.23260000  0.47820000  0.55100000  1.0
  C  C210  1  0.26780000  0.50980000  0.67900000  1.0
  C  C211  1  0.19870000  0.62030000  0.94000000  1.0
  C  C212  1  0.10900000  0.71900000  0.05400000  1.0
  C  C213  1  0.12980000  0.78510000  0.34500000  1.0
  C  C214  1  0.15320000  0.82180000  0.53100000  1.0
  C  C215  1  0.12700000  0.86260000  0.62700000  1.0
  C  C216  1  0.14880000  0.90010000  0.81500000  1.0
  C  C217  1  0.12370000  0.94130000  0.91900000  1.0
  C  C218  1  0.07510000  0.94390000  0.82500000  1.0
  C  C219  1  0.05260000  0.90660000  0.63700000  1.0
  C  C220  1  0.07810000  0.86520000  0.53400000  1.0
  C  C221  1  0.05420000  0.82840000  0.34800000  1.0
  C  C222  1  0.08050000  0.78730000  0.26300000  1.0
  C  C223  1  0.94490000  0.75490000  0.69100000  1.0
  C  C224  1  0.93110000  0.70680000  0.68700000  1.0
  C  C225  1  0.96270000  0.67150000  0.81500000  1.0
  C  C226  1  0.00800000  0.68450000  0.94500000  1.0
  C  C227  1  0.02180000  0.73260000  0.94900000  1.0
  C  C228  1  0.99020000  0.76780000  0.82100000  1.0
  C  C229  1  0.87970000  0.69870000  0.56000000  1.0
  C  C230  1  0.89100000  0.28100000  0.05400000  1.0
  C  C231  1  0.87020000  0.21490000  0.34500000  1.0
  C  C232  1  0.84680000  0.17820000  0.53100000  1.0
  C  C233  1  0.87300000  0.13740000  0.62700000  1.0
  C  C234  1  0.85120000  0.09990000  0.81500000  1.0
  C  C235  1  0.87630000  0.05870000  0.91900000  1.0
  C  C236  1  0.92490000  0.05610000  0.82500000  1.0
  C  C237  1  0.94740000  0.09340000  0.63700000  1.0
  C  C238  1  0.92190000  0.13480000  0.53400000  1.0
  C  C239  1  0.94580000  0.17160000  0.34800000  1.0
  C  C240  1  0.91950000  0.21270000  0.26300000  1.0
  C  C241  1  0.05510000  0.24510000  0.69100000  1.0
  C  C242  1  0.06890000  0.29320000  0.68700000  1.0
  C  C243  1  0.03730000  0.32850000  0.81500000  1.0
  C  C244  1  0.99200000  0.31550000  0.94500000  1.0
  C  C245  1  0.97820000  0.26740000  0.94900000  1.0
  C  C246  1  0.00980000  0.23220000  0.82100000  1.0
  C  C247  1  0.12030000  0.30130000  0.56000000  1.0
  N  N248  1  0.25890000  0.14510000  0.78800000  1.0
  N  N249  1  0.25430000  0.06800000  0.92900000  1.0
  N  N250  1  0.74110000  0.85490000  0.78800000  1.0
  N  N251  1  0.74570000  0.93200000  0.92900000  1.0
  N  N252  1  0.64510000  0.24110000  0.71200000  1.0
  N  N253  1  0.56800000  0.24570000  0.57100000  1.0
  N  N254  1  0.35490000  0.75890000  0.71200000  1.0
  N  N255  1  0.43200000  0.75430000  0.57100000  1.0
  N  N256  1  0.75890000  0.64510000  0.28800000  1.0
  N  N257  1  0.75430000  0.56800000  0.42900000  1.0
  N  N258  1  0.24110000  0.35490000  0.28800000  1.0
  N  N259  1  0.24570000  0.43200000  0.42900000  1.0
  N  N260  1  0.14510000  0.74110000  0.21200000  1.0
  N  N261  1  0.06800000  0.74570000  0.07100000  1.0
  N  N262  1  0.85490000  0.25890000  0.21200000  1.0
  N  N263  1  0.93200000  0.25430000  0.07100000  1.0
  O  O264  1  0.27350000  0.85850000  0.60100000  1.0
  O  O265  1  0.33830000  0.86160000  0.25900000  1.0
  O  O266  1  0.28470000  0.24610000  0.36100000  1.0
  O  O267  1  0.34070000  0.87900000  0.64100000  1.0
  O  O268  1  0.72650000  0.14150000  0.60100000  1.0
  O  O269  1  0.66170000  0.13840000  0.25900000  1.0
  O  O270  1  0.71530000  0.75390000  0.36100000  1.0
  O  O271  1  0.65930000  0.12100000  0.64100000  1.0
  O  O272  1  0.35850000  0.22650000  0.89900000  1.0
  O  O273  1  0.36160000  0.16170000  0.24100000  1.0
  O  O274  1  0.74610000  0.21530000  0.13900000  1.0
  O  O275  1  0.37900000  0.15930000  0.85900000  1.0
  O  O276  1  0.64150000  0.77350000  0.89900000  1.0
  O  O277  1  0.63840000  0.83830000  0.24100000  1.0
  O  O278  1  0.25390000  0.78470000  0.13900000  1.0
  O  O279  1  0.62100000  0.84070000  0.85900000  1.0
  O  O280  1  0.77350000  0.35850000  0.10100000  1.0
  O  O281  1  0.83830000  0.36160000  0.75900000  1.0
  O  O282  1  0.78470000  0.74610000  0.86100000  1.0
  O  O283  1  0.84070000  0.37900000  0.14100000  1.0
  O  O284  1  0.22650000  0.64150000  0.10100000  1.0
  O  O285  1  0.16170000  0.63840000  0.75900000  1.0
  O  O286  1  0.21530000  0.25390000  0.86100000  1.0
  O  O287  1  0.15930000  0.62100000  0.14100000  1.0
  O  O288  1  0.85850000  0.72650000  0.39900000  1.0
  O  O289  1  0.86160000  0.66170000  0.74100000  1.0
  O  O290  1  0.24610000  0.71530000  0.63900000  1.0
  O  O291  1  0.87900000  0.65930000  0.35900000  1.0
  O  O292  1  0.14150000  0.27350000  0.39900000  1.0
  O  O293  1  0.13840000  0.33830000  0.74100000  1.0
  O  O294  1  0.75390000  0.28470000  0.63900000  1.0
  O  O295  1  0.12100000  0.34070000  0.35900000  1.0
