# generated using pymatgen
data_Zr6Fe3H80C144(N3O8)4
_symmetry_space_group_name_H-M   'P 1'
_cell_length_a   21.43000000
_cell_length_b   21.43000000
_cell_length_c   16.89000000
_cell_angle_alpha   90.00000000
_cell_angle_beta   90.00000000
_cell_angle_gamma   120.00000000
_symmetry_Int_Tables_number   1
_chemical_formula_structural   Zr6Fe3H80C144(N3O8)4
_chemical_formula_sum   'Zr6 Fe3 H80 C144 N12 O32'
_cell_volume   6717.45279680
_cell_formula_units_Z   1
loop_
 _symmetry_equiv_pos_site_id
 _symmetry_equiv_pos_as_xyz
  1  'x, y, z'
loop_
 _atom_site_type_symbol
 _atom_site_label
 _atom_site_symmetry_multiplicity
 _atom_site_fract_x
 _atom_site_fract_y
 _atom_site_fract_z
 _atom_site_occupancy
  Zr  Zr0  1  0.92834000  0.92614000  0.09253000  1.0
  Zr  Zr1  1  0.07378000  0.07408000  0.09276000  1.0
  Zr  Zr2  1  0.07401000  0.07395000  0.90828000  1.0
  Zr  Zr3  1  0.92852000  0.92619000  0.90814000  1.0
  Zr  Zr4  1  0.06147000  0.94333000  0.00055000  1.0
  Zr  Zr5  1  0.94113000  0.05712000  0.00051000  1.0
  Fe  Fe6  1  0.00000000  0.50000000  0.50000000  1.0
  Fe  Fe7  1  0.50000000  0.50000000  0.50000000  1.0
  Fe  Fe8  1  0.50000000  0.00000000  0.50000000  1.0
  H  H9  1  0.98722000  0.42302000  0.20453000  1.0
  H  H10  1  0.00554000  0.27081000  0.42195000  1.0
  H  H11  1  0.89394000  0.27821000  0.25741000  1.0
  H  H12  1  0.95319000  0.34945000  0.18816000  1.0
  H  H13  1  0.95025000  0.26724000  0.11323000  1.0
  H  H14  1  0.89575000  0.19667000  0.18537000  1.0
  H  H15  1  0.10035000  0.34624000  0.33633000  1.0
  H  H16  1  0.04631000  0.21120000  0.09655000  1.0
  H  H17  1  0.09871000  0.25022000  0.24970000  1.0
  H  H18  1  0.57698000  0.56419000  0.20453000  1.0
  H  H19  1  0.72919000  0.73473000  0.42195000  1.0
  H  H20  1  0.74516000  0.63426000  0.33717000  1.0
  H  H21  1  0.84244000  0.73064000  0.25186000  1.0
  H  H22  1  0.58360000  0.67477000  0.22519000  1.0
  H  H23  1  0.68035000  0.76893000  0.13624000  1.0
  H  H24  1  0.43682000  0.01154000  0.20205000  1.0
  H  H25  1  0.26527000  0.99446000  0.42195000  1.0
  H  H26  1  0.32100000  0.07900000  0.36174000  1.0
  H  H27  1  0.22773000  0.07812000  0.27333000  1.0
  H  H28  1  0.35256000  0.93882000  0.19611000  1.0
  H  H29  1  0.25543000  0.93820000  0.10626000  1.0
  H  H30  1  0.01225000  0.56339000  0.19080000  1.0
  H  H31  1  0.99446000  0.72919000  0.42195000  1.0
  H  H32  1  0.10714000  0.72098000  0.25748000  1.0
  H  H33  1  0.04751000  0.64973000  0.18844000  1.0
  H  H34  1  0.05145000  0.73205000  0.11289000  1.0
  H  H35  1  0.10641000  0.80269000  0.18479000  1.0
  H  H36  1  0.90113000  0.65525000  0.33599000  1.0
  H  H37  1  0.90409000  0.75158000  0.24869000  1.0
  H  H38  1  0.43661000  0.44885000  0.19080000  1.0
  H  H39  1  0.27081000  0.26527000  0.42195000  1.0
  H  H40  1  0.31094000  0.41723000  0.24076000  1.0
  H  H41  1  0.21629000  0.32166000  0.15077000  1.0
  H  H42  1  0.37464000  0.26208000  0.32144000  1.0
  H  H43  1  0.27876000  0.16582000  0.23466000  1.0
  H  H44  1  0.55115000  0.98775000  0.19080000  1.0
  H  H45  1  0.73473000  0.00554000  0.42195000  1.0
  H  H46  1  0.65854000  0.90082000  0.34396000  1.0
  H  H47  1  0.75437000  0.90203000  0.25715000  1.0
  H  H48  1  0.67268000  0.08445000  0.21221000  1.0
  H  H49  1  0.78770000  0.94880000  0.09706000  1.0
  H  H50  1  0.76932000  0.08370000  0.12326000  1.0
  H  H51  1  0.01278000  0.57698000  0.79547000  1.0
  H  H52  1  0.99438000  0.73124000  0.57383000  1.0
  H  H53  1  0.09567000  0.67985000  0.78104000  1.0
  H  H54  1  0.09661000  0.77660000  0.87132000  1.0
  H  H55  1  0.90183000  0.65630000  0.66366000  1.0
  H  H56  1  0.90503000  0.75261000  0.75110000  1.0
  H  H57  1  0.42302000  0.43581000  0.79547000  1.0
  H  H58  1  0.26876000  0.26314000  0.57383000  1.0
  H  H59  1  0.25477000  0.36503000  0.66366000  1.0
  H  H60  1  0.15827000  0.26796000  0.74915000  1.0
  H  H61  1  0.41783000  0.32581000  0.77388000  1.0
  H  H62  1  0.32197000  0.23102000  0.86301000  1.0
  H  H63  1  0.56419000  0.98722000  0.79547000  1.0
  H  H64  1  0.73686000  0.00562000  0.57383000  1.0
  H  H65  1  0.65906000  0.90112000  0.65607000  1.0
  H  H66  1  0.75483000  0.90241000  0.74308000  1.0
  H  H67  1  0.67258000  0.08439000  0.78800000  1.0
  H  H68  1  0.76923000  0.08374000  0.87711000  1.0
  H  H69  1  0.94079000  0.42542000  0.77496000  1.0
  H  H70  1  0.04074000  0.46694000  0.78776000  1.0
  H  H71  1  0.00562000  0.26876000  0.57383000  1.0
  H  H72  1  0.90573000  0.32035000  0.78243000  1.0
  H  H73  1  0.90611000  0.22418000  0.87273000  1.0
  H  H74  1  0.09853000  0.34378000  0.66265000  1.0
  H  H75  1  0.04553000  0.21174000  0.90558000  1.0
  H  H76  1  0.09660000  0.24813000  0.75011000  1.0
  H  H77  1  0.56339000  0.55115000  0.80920000  1.0
  H  H78  1  0.73124000  0.73686000  0.57383000  1.0
  H  H79  1  0.74556000  0.63507000  0.66199000  1.0
  H  H80  1  0.84286000  0.73146000  0.74723000  1.0
  H  H81  1  0.58371000  0.67413000  0.77576000  1.0
  H  H82  1  0.68053000  0.76822000  0.86468000  1.0
  H  H83  1  0.43595000  0.00983000  0.79823000  1.0
  H  H84  1  0.26314000  0.99438000  0.57383000  1.0
  H  H85  1  0.41503000  0.05690000  0.81233000  1.0
  H  H86  1  0.32105000  0.05906000  0.90154000  1.0
  H  H87  1  0.24865000  0.93989000  0.63421000  1.0
  H  H88  1  0.15495000  0.94520000  0.72245000  1.0
  C  C89  1  0.00100000  0.45600000  0.32800000  1.0
  C  C90  1  0.99600000  0.46670000  0.24900000  1.0
  C  C91  1  0.99860000  0.39080000  0.34740000  1.0
  C  C92  1  0.00200000  0.37000000  0.42500000  1.0
  C  C93  1  0.00400000  0.31400000  0.45992000  1.0
  C  C94  1  0.00191000  0.33957000  0.28501000  1.0
  C  C95  1  0.94850000  0.30352000  0.22651000  1.0
  C  C96  1  0.94851000  0.24952000  0.17722000  1.0
  C  C97  1  0.05508000  0.31899000  0.29108000  1.0
  C  C98  1  0.00069000  0.16911000  0.13455000  1.0
  C  C99  1  0.00117000  0.22841000  0.18506000  1.0
  C  C100  1  0.05478000  0.26501000  0.24262000  1.0
  C  C101  1  0.54400000  0.54500000  0.32800000  1.0
  C  C102  1  0.53330000  0.52930000  0.24900000  1.0
  C  C103  1  0.60920000  0.60780000  0.34740000  1.0
  C  C104  1  0.63000000  0.63200000  0.42500000  1.0
  C  C105  1  0.68600000  0.69000000  0.45992000  1.0
  C  C106  1  0.66077000  0.65229000  0.28694000  1.0
  C  C107  1  0.73149000  0.66607000  0.29329000  1.0
  C  C108  1  0.78432000  0.71823000  0.24623000  1.0
  C  C109  1  0.64201000  0.68815000  0.23089000  1.0
  C  C110  1  0.82311000  0.81731000  0.15546000  1.0
  C  C111  1  0.76599000  0.75530000  0.19214000  1.0
  C  C112  1  0.69508000  0.73986000  0.18267000  1.0
  C  C113  1  0.45301000  0.00142000  0.32939000  1.0
  C  C114  1  0.47070000  0.00400000  0.24900000  1.0
  C  C115  1  0.39220000  0.00140000  0.34740000  1.0
  C  C116  1  0.36800000  0.99800000  0.42500000  1.0
  C  C117  1  0.31000000  0.99600000  0.45992000  1.0
  C  C118  1  0.34393000  0.00676000  0.28802000  1.0
  C  C119  1  0.30766000  0.04556000  0.30529000  1.0
  C  C120  1  0.25450000  0.04565000  0.25586000  1.0
  C  C121  1  0.32403000  0.96933000  0.21466000  1.0
  C  C122  1  0.17329000  0.00479000  0.13389000  1.0
  C  C123  1  0.23325000  0.00646000  0.18486000  1.0
  C  C124  1  0.27007000  0.96910000  0.16459000  1.0
  C  C125  1  0.99900000  0.54400000  0.32800000  1.0
  C  C126  1  0.00400000  0.53330000  0.24900000  1.0
  C  C127  1  0.00140000  0.60920000  0.34740000  1.0
  C  C128  1  0.99800000  0.63000000  0.42500000  1.0
  C  C129  1  0.99600000  0.68600000  0.45992000  1.0
  C  C130  1  0.99902000  0.66069000  0.28492000  1.0
  C  C131  1  0.05266000  0.69604000  0.22645000  1.0
  C  C132  1  0.05335000  0.75012000  0.17676000  1.0
  C  C133  1  0.94644000  0.68198000  0.29071000  1.0
  C  C134  1  0.00203000  0.83113000  0.13362000  1.0
  C  C135  1  0.00118000  0.77187000  0.18429000  1.0
  C  C136  1  0.94750000  0.73603000  0.24190000  1.0
  C  C137  1  0.45600000  0.45500000  0.32800000  1.0
  C  C138  1  0.46670000  0.47070000  0.24900000  1.0
  C  C139  1  0.39080000  0.39220000  0.34740000  1.0
  C  C140  1  0.37000000  0.36800000  0.42500000  1.0
  C  C141  1  0.31400000  0.31000000  0.45992000  1.0
  C  C142  1  0.34485000  0.34267000  0.28674000  1.0
  C  C143  1  0.30264000  0.36039000  0.23912000  1.0
  C  C144  1  0.25095000  0.30803000  0.19029000  1.0
  C  C145  1  0.33769000  0.27432000  0.28417000  1.0
  C  C146  1  0.18092000  0.18125000  0.15468000  1.0
  C  C147  1  0.24243000  0.23915000  0.19061000  1.0
  C  C148  1  0.28578000  0.22216000  0.23637000  1.0
  C  C149  1  0.54500000  0.00100000  0.32800000  1.0
  C  C150  1  0.52930000  0.99600000  0.24900000  1.0
  C  C151  1  0.60780000  0.99860000  0.34740000  1.0
  C  C152  1  0.63200000  0.00200000  0.42500000  1.0
  C  C153  1  0.69000000  0.00400000  0.45992000  1.0
  C  C154  1  0.65819000  0.99325000  0.28518000  1.0
  C  C155  1  0.68257000  0.94327000  0.29531000  1.0
  C  C156  1  0.73662000  0.94343000  0.24682000  1.0
  C  C157  1  0.69071000  0.04330000  0.22279000  1.0
  C  C158  1  0.82940000  0.99515000  0.13461000  1.0
  C  C159  1  0.76964000  0.99385000  0.18533000  1.0
  C  C160  1  0.74475000  0.04320000  0.17371000  1.0
  C  C161  1  0.99900000  0.54400000  0.67200000  1.0
  C  C162  1  0.00400000  0.53330000  0.75100000  1.0
  C  C163  1  0.00140000  0.60920000  0.65260000  1.0
  C  C164  1  0.99800000  0.63000000  0.57500000  1.0
  C  C165  1  0.99600000  0.68600000  0.54008000  1.0
  C  C166  1  0.99919000  0.66085000  0.71513000  1.0
  C  C167  1  0.05261000  0.69584000  0.77395000  1.0
  C  C168  1  0.05343000  0.74996000  0.82375000  1.0
  C  C169  1  0.94698000  0.68263000  0.70918000  1.0
  C  C170  1  0.00243000  0.83139000  0.86690000  1.0
  C  C171  1  0.00160000  0.77216000  0.81606000  1.0
  C  C172  1  0.94816000  0.73670000  0.75809000  1.0
  C  C173  1  0.45600000  0.45500000  0.67200000  1.0
  C  C174  1  0.46670000  0.47070000  0.75100000  1.0
  C  C175  1  0.39080000  0.39220000  0.65260000  1.0
  C  C176  1  0.37000000  0.36800000  0.57500000  1.0
  C  C177  1  0.31400000  0.31000000  0.54008000  1.0
  C  C178  1  0.33973000  0.34750000  0.71305000  1.0
  C  C179  1  0.26887000  0.33329000  0.70717000  1.0
  C  C180  1  0.21656000  0.28081000  0.75427000  1.0
  C  C181  1  0.35923000  0.31191000  0.76864000  1.0
  C  C182  1  0.17906000  0.18192000  0.84463000  1.0
  C  C183  1  0.23561000  0.24394000  0.80780000  1.0
  C  C184  1  0.30668000  0.25989000  0.81690000  1.0
  C  C185  1  0.54500000  0.00100000  0.67200000  1.0
  C  C186  1  0.52930000  0.99600000  0.75100000  1.0
  C  C187  1  0.60780000  0.99860000  0.65260000  1.0
  C  C188  1  0.63200000  0.00200000  0.57500000  1.0
  C  C189  1  0.69000000  0.00400000  0.54008000  1.0
  C  C190  1  0.65832000  0.99335000  0.71490000  1.0
  C  C191  1  0.68290000  0.94351000  0.70480000  1.0
  C  C192  1  0.73695000  0.94371000  0.75342000  1.0
  C  C193  1  0.69073000  0.04333000  0.77742000  1.0
  C  C194  1  0.82958000  0.99530000  0.86598000  1.0
  C  C195  1  0.76984000  0.99403000  0.81506000  1.0
  C  C196  1  0.74478000  0.04328000  0.82661000  1.0
  C  C197  1  0.00100000  0.45600000  0.67200000  1.0
  C  C198  1  0.99600000  0.46670000  0.75100000  1.0
  C  C199  1  0.99860000  0.39080000  0.65260000  1.0
  C  C200  1  0.00200000  0.37000000  0.57500000  1.0
  C  C201  1  0.00400000  0.31400000  0.54008000  1.0
  C  C202  1  0.00155000  0.33935000  0.71519000  1.0
  C  C203  1  0.94884000  0.30450000  0.77476000  1.0
  C  C204  1  0.94876000  0.25069000  0.82460000  1.0
  C  C205  1  0.05384000  0.31765000  0.70870000  1.0
  C  C206  1  0.00029000  0.16942000  0.86737000  1.0
  C  C207  1  0.00064000  0.22855000  0.81638000  1.0
  C  C208  1  0.05340000  0.26388000  0.75767000  1.0
  C  C209  1  0.54400000  0.54500000  0.67200000  1.0
  C  C210  1  0.53330000  0.52930000  0.75100000  1.0
  C  C211  1  0.60920000  0.60780000  0.65260000  1.0
  C  C212  1  0.63000000  0.63200000  0.57500000  1.0
  C  C213  1  0.68600000  0.69000000  0.54008000  1.0
  C  C214  1  0.66093000  0.65231000  0.71307000  1.0
  C  C215  1  0.73179000  0.66653000  0.70625000  1.0
  C  C216  1  0.78467000  0.71870000  0.75330000  1.0
  C  C217  1  0.64218000  0.68779000  0.76962000  1.0
  C  C218  1  0.82343000  0.81734000  0.84485000  1.0
  C  C219  1  0.76632000  0.75537000  0.80792000  1.0
  C  C220  1  0.69530000  0.73949000  0.81785000  1.0
  C  C221  1  0.45450000  0.00436000  0.67052000  1.0
  C  C222  1  0.47070000  0.00400000  0.75100000  1.0
  C  C223  1  0.39220000  0.00140000  0.65260000  1.0
  C  C224  1  0.36800000  0.99800000  0.57500000  1.0
  C  C225  1  0.31000000  0.99600000  0.54008000  1.0
  C  C226  1  0.33991000  0.00016000  0.71253000  1.0
  C  C227  1  0.35744000  0.03185000  0.78933000  1.0
  C  C228  1  0.30479000  0.03374000  0.84021000  1.0
  C  C229  1  0.26527000  0.96864000  0.69379000  1.0
  C  C230  1  0.17393000  0.00568000  0.86806000  1.0
  C  C231  1  0.23188000  0.00475000  0.81665000  1.0
  C  C232  1  0.21338000  0.97107000  0.74283000  1.0
  N  N233  1  0.00000000  0.50000000  0.38400000  1.0
  N  N234  1  0.50000000  0.50000000  0.38400000  1.0
  N  N235  1  0.50000000  0.00000000  0.38400000  1.0
  N  N236  1  0.00000000  0.50000000  0.61600000  1.0
  N  N237  1  0.50000000  0.50000000  0.61600000  1.0
  N  N238  1  0.50000000  0.00000000  0.61600000  1.0
  N  N239  1  0.01000000  0.41600000  0.50000000  1.0
  N  N240  1  0.58400000  0.59400000  0.50000000  1.0
  N  N241  1  0.40600000  0.99000000  0.50000000  1.0
  N  N242  1  0.99000000  0.58400000  0.50000000  1.0
  N  N243  1  0.41600000  0.40600000  0.50000000  1.0
  N  N244  1  0.59400000  0.01000000  0.50000000  1.0
  O  O245  1  0.95877000  0.14560000  0.07304000  1.0
  O  O246  1  0.04102000  0.14184000  0.15560000  1.0
  O  O247  1  0.82917000  0.83005000  0.08285000  1.0
  O  O248  1  0.87554000  0.86613000  0.19296000  1.0
  O  O249  1  0.15119000  0.96342000  0.07203000  1.0
  O  O250  1  0.04427000  0.85486000  0.07251000  1.0
  O  O251  1  0.16849000  0.17409000  0.08207000  1.0
  O  O252  1  0.85839000  0.95629000  0.15564000  1.0
  O  O253  1  0.85177000  0.03681000  0.07286000  1.0
  O  O254  1  0.04454000  0.85505000  0.92816000  1.0
  O  O255  1  0.96188000  0.85843000  0.84620000  1.0
  O  O256  1  0.17402000  0.16894000  0.91712000  1.0
  O  O257  1  0.12590000  0.13366000  0.80755000  1.0
  O  O258  1  0.85856000  0.95638000  0.84503000  1.0
  O  O259  1  0.85188000  0.03691000  0.92782000  1.0
  O  O260  1  0.95811000  0.14564000  0.92858000  1.0
  O  O261  1  0.04111000  0.14258000  0.84687000  1.0
  O  O262  1  0.82968000  0.82964000  0.91756000  1.0
  O  O263  1  0.87565000  0.86655000  0.80747000  1.0
  O  O264  1  0.14334000  0.04266000  0.84527000  1.0
  O  O265  1  0.15249000  0.96520000  0.93056000  1.0
  O  O266  1  0.96146000  0.85813000  0.15430000  1.0
  O  O267  1  0.14370000  0.04309000  0.15513000  1.0
  O  O268  1  0.13279000  0.12886000  0.19285000  1.0
  O  O269  1  0.96558000  0.03376000  0.11655000  1.0
  O  O270  1  0.87474000  0.94295000  0.00029000  1.0
  O  O271  1  0.94762000  0.87412000  0.00037000  1.0
  O  O272  1  0.12761000  0.05744000  0.00073000  1.0
  O  O273  1  0.03686000  0.96645000  0.88454000  1.0
  O  O274  1  0.05494000  0.12616000  0.00039000  1.0
  O  O275  1  0.03657000  0.96649000  0.11623000  1.0
  O  O276  1  0.96580000  0.03379000  0.88460000  1.0
