# generated using pymatgen
data_CdH12C18(N3O2)2
_symmetry_space_group_name_H-M   'P 1'
_cell_length_a   15.62900000
_cell_length_b   15.99100000
_cell_length_c   9.23430000
_cell_angle_alpha   90.00000000
_cell_angle_beta   102.77400000
_cell_angle_gamma   90.00000000
_symmetry_Int_Tables_number   1
_chemical_formula_structural   CdH12C18(N3O2)2
_chemical_formula_sum   'Cd4 H48 C72 N24 O16'
_cell_volume   2250.74689287
_cell_formula_units_Z   4
loop_
 _symmetry_equiv_pos_site_id
 _symmetry_equiv_pos_as_xyz
  1  'x, y, z'
loop_
 _atom_site_type_symbol
 _atom_site_label
 _atom_site_symmetry_multiplicity
 _atom_site_fract_x
 _atom_site_fract_y
 _atom_site_fract_z
 _atom_site_occupancy
  Cd  Cd0  1  0.50000000  0.00000000  0.00000000  1.0
  Cd  Cd1  1  0.00000000  0.50000000  0.00000000  1.0
  Cd  Cd2  1  0.50000000  0.00000000  0.50000000  1.0
  Cd  Cd3  1  0.00000000  0.50000000  0.50000000  1.0
  H  H4  1  0.47750000  0.78860000  0.06620000  1.0
  H  H5  1  0.62840000  0.87500000  0.82210000  1.0
  H  H6  1  0.66740000  0.60840000  0.96530000  1.0
  H  H7  1  0.69890000  0.79070000  0.68610000  1.0
  H  H8  1  0.76960000  0.52880000  0.88360000  1.0
  H  H9  1  0.80030000  0.70910000  0.60110000  1.0
  H  H10  1  0.97750000  0.28860000  0.06620000  1.0
  H  H11  1  0.12840000  0.37500000  0.82210000  1.0
  H  H12  1  0.16740000  0.10840000  0.96530000  1.0
  H  H13  1  0.19890000  0.29070000  0.68610000  1.0
  H  H14  1  0.26960000  0.02880000  0.88360000  1.0
  H  H15  1  0.30030000  0.20910000  0.60110000  1.0
  H  H16  1  0.52250000  0.78860000  0.43380000  1.0
  H  H17  1  0.37160000  0.87500000  0.67790000  1.0
  H  H18  1  0.33260000  0.60840000  0.53470000  1.0
  H  H19  1  0.30110000  0.79070000  0.81390000  1.0
  H  H20  1  0.23040000  0.52880000  0.61640000  1.0
  H  H21  1  0.19970000  0.70910000  0.89890000  1.0
  H  H22  1  0.02250000  0.28860000  0.43380000  1.0
  H  H23  1  0.87160000  0.37500000  0.67790000  1.0
  H  H24  1  0.83260000  0.10840000  0.53470000  1.0
  H  H25  1  0.80110000  0.29070000  0.81390000  1.0
  H  H26  1  0.73040000  0.02880000  0.61640000  1.0
  H  H27  1  0.69970000  0.20910000  0.89890000  1.0
  H  H28  1  0.52250000  0.21140000  0.93380000  1.0
  H  H29  1  0.37160000  0.12500000  0.17790000  1.0
  H  H30  1  0.33260000  0.39160000  0.03470000  1.0
  H  H31  1  0.30110000  0.20930000  0.31390000  1.0
  H  H32  1  0.23040000  0.47120000  0.11640000  1.0
  H  H33  1  0.19970000  0.29090000  0.39890000  1.0
  H  H34  1  0.02250000  0.71140000  0.93380000  1.0
  H  H35  1  0.87160000  0.62500000  0.17790000  1.0
  H  H36  1  0.83260000  0.89160000  0.03470000  1.0
  H  H37  1  0.80110000  0.70930000  0.31390000  1.0
  H  H38  1  0.73040000  0.97120000  0.11640000  1.0
  H  H39  1  0.69970000  0.79090000  0.39890000  1.0
  H  H40  1  0.47750000  0.21140000  0.56620000  1.0
  H  H41  1  0.62840000  0.12500000  0.32210000  1.0
  H  H42  1  0.66740000  0.39160000  0.46530000  1.0
  H  H43  1  0.69890000  0.20930000  0.18610000  1.0
  H  H44  1  0.76960000  0.47120000  0.38360000  1.0
  H  H45  1  0.80030000  0.29090000  0.10110000  1.0
  H  H46  1  0.97750000  0.71140000  0.56620000  1.0
  H  H47  1  0.12840000  0.62500000  0.32210000  1.0
  H  H48  1  0.16740000  0.89160000  0.46530000  1.0
  H  H49  1  0.19890000  0.70930000  0.18610000  1.0
  H  H50  1  0.26960000  0.97120000  0.38360000  1.0
  H  H51  1  0.30030000  0.79090000  0.10110000  1.0
  C  C52  1  0.51870000  0.79120000  0.00750000  1.0
  C  C53  1  0.59950000  0.83960000  0.87530000  1.0
  C  C54  1  0.67240000  0.70670000  0.83170000  1.0
  C  C55  1  0.69420000  0.62890000  0.89210000  1.0
  C  C56  1  0.71280000  0.73750000  0.72510000  1.0
  C  C57  1  0.75570000  0.58180000  0.84360000  1.0
  C  C58  1  0.77440000  0.68900000  0.67570000  1.0
  C  C59  1  0.79740000  0.61136000  0.73670000  1.0
  C  C60  1  0.86810000  0.56050000  0.69020000  1.0
  C  C61  1  0.01870000  0.29120000  0.00750000  1.0
  C  C62  1  0.09950000  0.33960000  0.87530000  1.0
  C  C63  1  0.17240000  0.20670000  0.83170000  1.0
  C  C64  1  0.19420000  0.12890000  0.89210000  1.0
  C  C65  1  0.21280000  0.23750000  0.72510000  1.0
  C  C66  1  0.25570000  0.08180000  0.84360000  1.0
  C  C67  1  0.27440000  0.18900000  0.67570000  1.0
  C  C68  1  0.29740000  0.11136000  0.73670000  1.0
  C  C69  1  0.36810000  0.06050000  0.69020000  1.0
  C  C70  1  0.48130000  0.79120000  0.49250000  1.0
  C  C71  1  0.40050000  0.83960000  0.62470000  1.0
  C  C72  1  0.32760000  0.70670000  0.66830000  1.0
  C  C73  1  0.30580000  0.62890000  0.60790000  1.0
  C  C74  1  0.28720000  0.73750000  0.77490000  1.0
  C  C75  1  0.24430000  0.58180000  0.65640000  1.0
  C  C76  1  0.22560000  0.68900000  0.82430000  1.0
  C  C77  1  0.20260000  0.61136000  0.76330000  1.0
  C  C78  1  0.13190000  0.56050000  0.80980000  1.0
  C  C79  1  0.98130000  0.29120000  0.49250000  1.0
  C  C80  1  0.90050000  0.33960000  0.62470000  1.0
  C  C81  1  0.82760000  0.20670000  0.66830000  1.0
  C  C82  1  0.80580000  0.12890000  0.60790000  1.0
  C  C83  1  0.78720000  0.23750000  0.77490000  1.0
  C  C84  1  0.74430000  0.08180000  0.65640000  1.0
  C  C85  1  0.72560000  0.18900000  0.82430000  1.0
  C  C86  1  0.70260000  0.11136000  0.76330000  1.0
  C  C87  1  0.63190000  0.06050000  0.80980000  1.0
  C  C88  1  0.48130000  0.20880000  0.99250000  1.0
  C  C89  1  0.40050000  0.16040000  0.12470000  1.0
  C  C90  1  0.32760000  0.29330000  0.16830000  1.0
  C  C91  1  0.30580000  0.37110000  0.10790000  1.0
  C  C92  1  0.28720000  0.26250000  0.27490000  1.0
  C  C93  1  0.24430000  0.41820000  0.15640000  1.0
  C  C94  1  0.22560000  0.31100000  0.32430000  1.0
  C  C95  1  0.20260000  0.38864000  0.26330000  1.0
  C  C96  1  0.13190000  0.43950000  0.30980000  1.0
  C  C97  1  0.98130000  0.70880000  0.99250000  1.0
  C  C98  1  0.90050000  0.66040000  0.12470000  1.0
  C  C99  1  0.82760000  0.79330000  0.16830000  1.0
  C  C100  1  0.80580000  0.87110000  0.10790000  1.0
  C  C101  1  0.78720000  0.76250000  0.27490000  1.0
  C  C102  1  0.74430000  0.91820000  0.15640000  1.0
  C  C103  1  0.72560000  0.81100000  0.32430000  1.0
  C  C104  1  0.70260000  0.88864000  0.26330000  1.0
  C  C105  1  0.63190000  0.93950000  0.30980000  1.0
  C  C106  1  0.51870000  0.20880000  0.50750000  1.0
  C  C107  1  0.59950000  0.16040000  0.37530000  1.0
  C  C108  1  0.67240000  0.29330000  0.33170000  1.0
  C  C109  1  0.69420000  0.37110000  0.39210000  1.0
  C  C110  1  0.71280000  0.26250000  0.22510000  1.0
  C  C111  1  0.75570000  0.41820000  0.34360000  1.0
  C  C112  1  0.77440000  0.31100000  0.17570000  1.0
  C  C113  1  0.79740000  0.38864000  0.23670000  1.0
  C  C114  1  0.86810000  0.43950000  0.19020000  1.0
  C  C115  1  0.01870000  0.70880000  0.50750000  1.0
  C  C116  1  0.09950000  0.66040000  0.37530000  1.0
  C  C117  1  0.17240000  0.79330000  0.33170000  1.0
  C  C118  1  0.19420000  0.87110000  0.39210000  1.0
  C  C119  1  0.21280000  0.76250000  0.22510000  1.0
  C  C120  1  0.25570000  0.91820000  0.34360000  1.0
  C  C121  1  0.27440000  0.81100000  0.17570000  1.0
  C  C122  1  0.29740000  0.88864000  0.23670000  1.0
  C  C123  1  0.36810000  0.93950000  0.19020000  1.0
  N  N124  1  0.54096000  0.86386000  0.95050000  1.0
  N  N125  1  0.55930000  0.72467000  0.97390000  1.0
  N  N126  1  0.61111000  0.75756000  0.88670000  1.0
  N  N127  1  0.04096000  0.36386000  0.95050000  1.0
  N  N128  1  0.05930000  0.22467000  0.97390000  1.0
  N  N129  1  0.11111000  0.25756000  0.88670000  1.0
  N  N130  1  0.45904000  0.86386000  0.54950000  1.0
  N  N131  1  0.44070000  0.72467000  0.52610000  1.0
  N  N132  1  0.38889000  0.75756000  0.61330000  1.0
  N  N133  1  0.95904000  0.36386000  0.54950000  1.0
  N  N134  1  0.94070000  0.22467000  0.52610000  1.0
  N  N135  1  0.88889000  0.25756000  0.61330000  1.0
  N  N136  1  0.45904000  0.13614000  0.04950000  1.0
  N  N137  1  0.44070000  0.27533000  0.02610000  1.0
  N  N138  1  0.38889000  0.24244000  0.11330000  1.0
  N  N139  1  0.95904000  0.63614000  0.04950000  1.0
  N  N140  1  0.94070000  0.77533000  0.02610000  1.0
  N  N141  1  0.88889000  0.74244000  0.11330000  1.0
  N  N142  1  0.54096000  0.13614000  0.45050000  1.0
  N  N143  1  0.55930000  0.27533000  0.47390000  1.0
  N  N144  1  0.61111000  0.24244000  0.38670000  1.0
  N  N145  1  0.04096000  0.63614000  0.45050000  1.0
  N  N146  1  0.05930000  0.77533000  0.47390000  1.0
  N  N147  1  0.11111000  0.74244000  0.38670000  1.0
  O  O148  1  0.88982000  0.57855000  0.57200000  1.0
  O  O149  1  0.90120000  0.50132000  0.77430000  1.0
  O  O150  1  0.38982000  0.07855000  0.57200000  1.0
  O  O151  1  0.40120000  0.00132000  0.77430000  1.0
  O  O152  1  0.11018000  0.57855000  0.92800000  1.0
  O  O153  1  0.09880000  0.50132000  0.72570000  1.0
  O  O154  1  0.61018000  0.07855000  0.92800000  1.0
  O  O155  1  0.59880000  0.00132000  0.72570000  1.0
  O  O156  1  0.11018000  0.42145000  0.42800000  1.0
  O  O157  1  0.09880000  0.49868000  0.22570000  1.0
  O  O158  1  0.61018000  0.92145000  0.42800000  1.0
  O  O159  1  0.59880000  0.99868000  0.22570000  1.0
  O  O160  1  0.88982000  0.42145000  0.07200000  1.0
  O  O161  1  0.90120000  0.49868000  0.27430000  1.0
  O  O162  1  0.38982000  0.92145000  0.07200000  1.0
  O  O163  1  0.40120000  0.99868000  0.27430000  1.0
