# generated using pymatgen
data_AgH8(CN)2
_symmetry_space_group_name_H-M   'P 1'
_cell_length_a   20.77500000
_cell_length_b   19.47900000
_cell_length_c   5.95200000
_cell_angle_alpha   90.00000000
_cell_angle_beta   114.10000000
_cell_angle_gamma   90.00000000
_symmetry_Int_Tables_number   1
_chemical_formula_structural   AgH8(CN)2
_chemical_formula_sum   'Ag16 H128 C32 N32'
_cell_volume   2198.68242349
_cell_formula_units_Z   16
loop_
 _symmetry_equiv_pos_site_id
 _symmetry_equiv_pos_as_xyz
  1  'x, y, z'
loop_
 _atom_site_type_symbol
 _atom_site_label
 _atom_site_symmetry_multiplicity
 _atom_site_fract_x
 _atom_site_fract_y
 _atom_site_fract_z
 _atom_site_occupancy
  Ag  Ag0  1  0.50000000  0.00000000  0.00000000  1.0
  Ag  Ag1  1  0.00000000  0.50000000  0.00000000  1.0
  Ag  Ag2  1  0.50000000  0.00000000  0.50000000  1.0
  Ag  Ag3  1  0.00000000  0.50000000  0.50000000  1.0
  Ag  Ag4  1  0.75000000  0.25000000  0.00000000  1.0
  Ag  Ag5  1  0.25000000  0.25000000  0.50000000  1.0
  Ag  Ag6  1  0.25000000  0.75000000  0.00000000  1.0
  Ag  Ag7  1  0.75000000  0.75000000  0.50000000  1.0
  Ag  Ag8  1  0.75000000  0.25000000  0.50000000  1.0
  Ag  Ag9  1  0.25000000  0.25000000  0.00000000  1.0
  Ag  Ag10  1  0.25000000  0.75000000  0.50000000  1.0
  Ag  Ag11  1  0.75000000  0.75000000  0.00000000  1.0
  Ag  Ag12  1  0.00000000  0.00000000  0.50000000  1.0
  Ag  Ag13  1  0.50000000  0.50000000  0.50000000  1.0
  Ag  Ag14  1  0.00000000  0.00000000  0.00000000  1.0
  Ag  Ag15  1  0.50000000  0.50000000  0.00000000  1.0
  H  H16  1  0.62070000  0.06060000  0.30910000  1.0
  H  H17  1  0.64040000  0.01650000  0.14690000  1.0
  H  H18  1  0.62090000  0.23280000  0.88610000  1.0
  H  H19  1  0.63980000  0.18920000  0.72210000  1.0
  H  H20  1  0.88760000  0.22800000  0.64220000  1.0
  H  H21  1  0.86520000  0.18260000  0.79400000  1.0
  H  H22  1  0.89050000  0.06960000  0.23070000  1.0
  H  H23  1  0.86850000  0.02370000  0.38040000  1.0
  H  H24  1  0.55990000  0.13270000  0.99030000  1.0
  H  H25  1  0.58110000  0.08570000  0.81730000  1.0
  H  H26  1  0.67900000  0.16130000  0.21420000  1.0
  H  H27  1  0.69980000  0.11470000  0.03950000  1.0
  H  H28  1  0.82910000  0.16220000  0.29850000  1.0
  H  H29  1  0.80430000  0.11350000  0.46080000  1.0
  H  H30  1  0.94890000  0.14030000  0.56620000  1.0
  H  H31  1  0.92380000  0.09110000  0.72550000  1.0
  H  H32  1  0.12070000  0.56060000  0.30910000  1.0
  H  H33  1  0.14040000  0.51650000  0.14690000  1.0
  H  H34  1  0.12090000  0.73280000  0.88610000  1.0
  H  H35  1  0.13980000  0.68920000  0.72210000  1.0
  H  H36  1  0.38760000  0.72800000  0.64220000  1.0
  H  H37  1  0.36520000  0.68260000  0.79400000  1.0
  H  H38  1  0.39050000  0.56960000  0.23070000  1.0
  H  H39  1  0.36850000  0.52370000  0.38040000  1.0
  H  H40  1  0.05990000  0.63270000  0.99030000  1.0
  H  H41  1  0.08110000  0.58570000  0.81730000  1.0
  H  H42  1  0.17900000  0.66130000  0.21420000  1.0
  H  H43  1  0.19980000  0.61470000  0.03950000  1.0
  H  H44  1  0.32910000  0.66220000  0.29850000  1.0
  H  H45  1  0.30430000  0.61350000  0.46080000  1.0
  H  H46  1  0.44890000  0.64030000  0.56620000  1.0
  H  H47  1  0.42380000  0.59110000  0.72550000  1.0
  H  H48  1  0.37930000  0.06060000  0.19090000  1.0
  H  H49  1  0.35960000  0.01650000  0.35310000  1.0
  H  H50  1  0.37910000  0.23280000  0.61390000  1.0
  H  H51  1  0.36020000  0.18920000  0.77790000  1.0
  H  H52  1  0.11240000  0.22800000  0.85780000  1.0
  H  H53  1  0.13480000  0.18260000  0.70600000  1.0
  H  H54  1  0.10950000  0.06960000  0.26930000  1.0
  H  H55  1  0.13150000  0.02370000  0.11960000  1.0
  H  H56  1  0.44010000  0.13270000  0.50970000  1.0
  H  H57  1  0.41890000  0.08570000  0.68270000  1.0
  H  H58  1  0.32100000  0.16130000  0.28580000  1.0
  H  H59  1  0.30020000  0.11470000  0.46050000  1.0
  H  H60  1  0.17090000  0.16220000  0.20150000  1.0
  H  H61  1  0.19570000  0.11350000  0.03920000  1.0
  H  H62  1  0.05110000  0.14030000  0.93380000  1.0
  H  H63  1  0.07620000  0.09110000  0.77450000  1.0
  H  H64  1  0.87930000  0.56060000  0.19090000  1.0
  H  H65  1  0.85960000  0.51650000  0.35310000  1.0
  H  H66  1  0.87910000  0.73280000  0.61390000  1.0
  H  H67  1  0.86020000  0.68920000  0.77790000  1.0
  H  H68  1  0.61240000  0.72800000  0.85780000  1.0
  H  H69  1  0.63480000  0.68260000  0.70600000  1.0
  H  H70  1  0.60950000  0.56960000  0.26930000  1.0
  H  H71  1  0.63150000  0.52370000  0.11960000  1.0
  H  H72  1  0.94010000  0.63270000  0.50970000  1.0
  H  H73  1  0.91890000  0.58570000  0.68270000  1.0
  H  H74  1  0.82100000  0.66130000  0.28580000  1.0
  H  H75  1  0.80020000  0.61470000  0.46050000  1.0
  H  H76  1  0.67090000  0.66220000  0.20150000  1.0
  H  H77  1  0.69570000  0.61350000  0.03920000  1.0
  H  H78  1  0.55110000  0.64030000  0.93380000  1.0
  H  H79  1  0.57620000  0.59110000  0.77450000  1.0
  H  H80  1  0.37930000  0.93940000  0.69090000  1.0
  H  H81  1  0.35960000  0.98350000  0.85310000  1.0
  H  H82  1  0.37910000  0.76720000  0.11390000  1.0
  H  H83  1  0.36020000  0.81080000  0.27790000  1.0
  H  H84  1  0.11240000  0.77200000  0.35780000  1.0
  H  H85  1  0.13480000  0.81740000  0.20600000  1.0
  H  H86  1  0.10950000  0.93040000  0.76930000  1.0
  H  H87  1  0.13150000  0.97630000  0.61960000  1.0
  H  H88  1  0.44010000  0.86730000  0.00970000  1.0
  H  H89  1  0.41890000  0.91430000  0.18270000  1.0
  H  H90  1  0.32100000  0.83870000  0.78580000  1.0
  H  H91  1  0.30020000  0.88530000  0.96050000  1.0
  H  H92  1  0.17090000  0.83780000  0.70150000  1.0
  H  H93  1  0.19570000  0.88650000  0.53920000  1.0
  H  H94  1  0.05110000  0.85970000  0.43380000  1.0
  H  H95  1  0.07620000  0.90890000  0.27450000  1.0
  H  H96  1  0.87930000  0.43940000  0.69090000  1.0
  H  H97  1  0.85960000  0.48350000  0.85310000  1.0
  H  H98  1  0.87910000  0.26720000  0.11390000  1.0
  H  H99  1  0.86020000  0.31080000  0.27790000  1.0
  H  H100  1  0.61240000  0.27200000  0.35780000  1.0
  H  H101  1  0.63480000  0.31740000  0.20600000  1.0
  H  H102  1  0.60950000  0.43040000  0.76930000  1.0
  H  H103  1  0.63150000  0.47630000  0.61960000  1.0
  H  H104  1  0.94010000  0.36730000  0.00970000  1.0
  H  H105  1  0.91890000  0.41430000  0.18270000  1.0
  H  H106  1  0.82100000  0.33870000  0.78580000  1.0
  H  H107  1  0.80020000  0.38530000  0.96050000  1.0
  H  H108  1  0.67090000  0.33780000  0.70150000  1.0
  H  H109  1  0.69570000  0.38650000  0.53920000  1.0
  H  H110  1  0.55110000  0.35970000  0.43380000  1.0
  H  H111  1  0.57620000  0.40890000  0.27450000  1.0
  H  H112  1  0.62070000  0.93940000  0.80910000  1.0
  H  H113  1  0.64040000  0.98350000  0.64690000  1.0
  H  H114  1  0.62090000  0.76720000  0.38610000  1.0
  H  H115  1  0.63980000  0.81080000  0.22210000  1.0
  H  H116  1  0.88760000  0.77200000  0.14220000  1.0
  H  H117  1  0.86520000  0.81740000  0.29400000  1.0
  H  H118  1  0.89050000  0.93040000  0.73070000  1.0
  H  H119  1  0.86850000  0.97630000  0.88040000  1.0
  H  H120  1  0.55990000  0.86730000  0.49030000  1.0
  H  H121  1  0.58110000  0.91430000  0.31730000  1.0
  H  H122  1  0.67900000  0.83870000  0.71420000  1.0
  H  H123  1  0.69980000  0.88530000  0.53950000  1.0
  H  H124  1  0.82910000  0.83780000  0.79850000  1.0
  H  H125  1  0.80430000  0.88650000  0.96080000  1.0
  H  H126  1  0.94890000  0.85970000  0.06620000  1.0
  H  H127  1  0.92380000  0.90890000  0.22550000  1.0
  H  H128  1  0.12070000  0.43940000  0.80910000  1.0
  H  H129  1  0.14040000  0.48350000  0.64690000  1.0
  H  H130  1  0.12090000  0.26720000  0.38610000  1.0
  H  H131  1  0.13980000  0.31080000  0.22210000  1.0
  H  H132  1  0.38760000  0.27200000  0.14220000  1.0
  H  H133  1  0.36520000  0.31740000  0.29400000  1.0
  H  H134  1  0.39050000  0.43040000  0.73070000  1.0
  H  H135  1  0.36850000  0.47630000  0.88040000  1.0
  H  H136  1  0.05990000  0.36730000  0.49030000  1.0
  H  H137  1  0.08110000  0.41430000  0.31730000  1.0
  H  H138  1  0.17900000  0.33870000  0.71420000  1.0
  H  H139  1  0.19980000  0.38530000  0.53950000  1.0
  H  H140  1  0.32910000  0.33780000  0.79850000  1.0
  H  H141  1  0.30430000  0.38650000  0.96080000  1.0
  H  H142  1  0.44890000  0.35970000  0.06620000  1.0
  H  H143  1  0.42380000  0.40890000  0.22550000  1.0
  C  C144  1  0.59670000  0.10320000  0.98400000  1.0
  C  C145  1  0.66320000  0.14440000  0.04700000  1.0
  C  C146  1  0.84120000  0.14420000  0.46300000  1.0
  C  C147  1  0.91210000  0.10900000  0.56100000  1.0
  C  C148  1  0.09670000  0.60320000  0.98400000  1.0
  C  C149  1  0.16320000  0.64440000  0.04700000  1.0
  C  C150  1  0.34120000  0.64420000  0.46300000  1.0
  C  C151  1  0.41210000  0.60900000  0.56100000  1.0
  C  C152  1  0.40330000  0.10320000  0.51600000  1.0
  C  C153  1  0.33680000  0.14440000  0.45300000  1.0
  C  C154  1  0.15880000  0.14420000  0.03700000  1.0
  C  C155  1  0.08790000  0.10900000  0.93900000  1.0
  C  C156  1  0.90330000  0.60320000  0.51600000  1.0
  C  C157  1  0.83680000  0.64440000  0.45300000  1.0
  C  C158  1  0.65880000  0.64420000  0.03700000  1.0
  C  C159  1  0.58790000  0.60900000  0.93900000  1.0
  C  C160  1  0.40330000  0.89680000  0.01600000  1.0
  C  C161  1  0.33680000  0.85560000  0.95300000  1.0
  C  C162  1  0.15880000  0.85580000  0.53700000  1.0
  C  C163  1  0.08790000  0.89100000  0.43900000  1.0
  C  C164  1  0.90330000  0.39680000  0.01600000  1.0
  C  C165  1  0.83680000  0.35560000  0.95300000  1.0
  C  C166  1  0.65880000  0.35580000  0.53700000  1.0
  C  C167  1  0.58790000  0.39100000  0.43900000  1.0
  C  C168  1  0.59670000  0.89680000  0.48400000  1.0
  C  C169  1  0.66320000  0.85560000  0.54700000  1.0
  C  C170  1  0.84120000  0.85580000  0.96300000  1.0
  C  C171  1  0.91210000  0.89100000  0.06100000  1.0
  C  C172  1  0.09670000  0.39680000  0.48400000  1.0
  C  C173  1  0.16320000  0.35560000  0.54700000  1.0
  C  C174  1  0.34120000  0.35580000  0.96300000  1.0
  C  C175  1  0.41210000  0.39100000  0.06100000  1.0
  N  N176  1  0.60800000  0.04610000  0.15300000  1.0
  N  N177  1  0.65400000  0.20360000  0.87900000  1.0
  N  N178  1  0.85360000  0.19930000  0.64100000  1.0
  N  N179  1  0.90300000  0.05250000  0.38300000  1.0
  N  N180  1  0.10800000  0.54610000  0.15300000  1.0
  N  N181  1  0.15400000  0.70360000  0.87900000  1.0
  N  N182  1  0.35360000  0.69930000  0.64100000  1.0
  N  N183  1  0.40300000  0.55250000  0.38300000  1.0
  N  N184  1  0.39200000  0.04610000  0.34700000  1.0
  N  N185  1  0.34600000  0.20360000  0.62100000  1.0
  N  N186  1  0.14640000  0.19930000  0.85900000  1.0
  N  N187  1  0.09700000  0.05250000  0.11700000  1.0
  N  N188  1  0.89200000  0.54610000  0.34700000  1.0
  N  N189  1  0.84600000  0.70360000  0.62100000  1.0
  N  N190  1  0.64640000  0.69930000  0.85900000  1.0
  N  N191  1  0.59700000  0.55250000  0.11700000  1.0
  N  N192  1  0.39200000  0.95390000  0.84700000  1.0
  N  N193  1  0.34600000  0.79640000  0.12100000  1.0
  N  N194  1  0.14640000  0.80070000  0.35900000  1.0
  N  N195  1  0.09700000  0.94750000  0.61700000  1.0
  N  N196  1  0.89200000  0.45390000  0.84700000  1.0
  N  N197  1  0.84600000  0.29640000  0.12100000  1.0
  N  N198  1  0.64640000  0.30070000  0.35900000  1.0
  N  N199  1  0.59700000  0.44750000  0.61700000  1.0
  N  N200  1  0.60800000  0.95390000  0.65300000  1.0
  N  N201  1  0.65400000  0.79640000  0.37900000  1.0
  N  N202  1  0.85360000  0.80070000  0.14100000  1.0
  N  N203  1  0.90300000  0.94750000  0.88300000  1.0
  N  N204  1  0.10800000  0.45390000  0.65300000  1.0
  N  N205  1  0.15400000  0.29640000  0.37900000  1.0
  N  N206  1  0.35360000  0.30070000  0.14100000  1.0
  N  N207  1  0.40300000  0.44750000  0.88300000  1.0
