# generated using pymatgen
data_AgH8(CN)2
_symmetry_space_group_name_H-M   'P 1'
_cell_length_a   10.43050000
_cell_length_b   10.52720000
_cell_length_c   6.29560000
_cell_angle_alpha   90.00000000
_cell_angle_beta   115.16000000
_cell_angle_gamma   90.00000000
_symmetry_Int_Tables_number   1
_chemical_formula_structural   AgH8(CN)2
_chemical_formula_sum   'Ag4 H32 C8 N8'
_cell_volume   625.69581190
_cell_formula_units_Z   4
loop_
 _symmetry_equiv_pos_site_id
 _symmetry_equiv_pos_as_xyz
  1  'x, y, z'
loop_
 _atom_site_type_symbol
 _atom_site_label
 _atom_site_symmetry_multiplicity
 _atom_site_fract_x
 _atom_site_fract_y
 _atom_site_fract_z
 _atom_site_occupancy
  Ag  Ag0  1  0.50000000  0.00000000  0.50000000  1.0
  Ag  Ag1  1  0.00000000  0.50000000  0.50000000  1.0
  Ag  Ag2  1  0.50000000  0.00000000  0.00000000  1.0
  Ag  Ag3  1  0.00000000  0.50000000  0.00000000  1.0
  H  H4  1  0.39720000  0.26520000  0.57730000  1.0
  H  H5  1  0.32860000  0.17170000  0.69330000  1.0
  H  H6  1  0.29870000  0.14660000  0.24360000  1.0
  H  H7  1  0.23900000  0.05880000  0.35560000  1.0
  H  H8  1  0.89720000  0.76520000  0.57730000  1.0
  H  H9  1  0.82860000  0.67170000  0.69330000  1.0
  H  H10  1  0.79870000  0.64660000  0.24360000  1.0
  H  H11  1  0.73900000  0.55880000  0.35560000  1.0
  H  H12  1  0.60280000  0.26520000  0.92270000  1.0
  H  H13  1  0.67140000  0.17170000  0.80670000  1.0
  H  H14  1  0.70130000  0.14660000  0.25640000  1.0
  H  H15  1  0.76100000  0.05880000  0.14440000  1.0
  H  H16  1  0.10280000  0.76520000  0.92270000  1.0
  H  H17  1  0.17140000  0.67170000  0.80670000  1.0
  H  H18  1  0.20130000  0.64660000  0.25640000  1.0
  H  H19  1  0.26100000  0.55880000  0.14440000  1.0
  H  H20  1  0.60280000  0.73480000  0.42270000  1.0
  H  H21  1  0.67140000  0.82830000  0.30670000  1.0
  H  H22  1  0.70130000  0.85340000  0.75640000  1.0
  H  H23  1  0.76100000  0.94120000  0.64440000  1.0
  H  H24  1  0.10280000  0.23480000  0.42270000  1.0
  H  H25  1  0.17140000  0.32830000  0.30670000  1.0
  H  H26  1  0.20130000  0.35340000  0.75640000  1.0
  H  H27  1  0.26100000  0.44120000  0.64440000  1.0
  H  H28  1  0.39720000  0.73480000  0.07730000  1.0
  H  H29  1  0.32860000  0.82830000  0.19330000  1.0
  H  H30  1  0.29870000  0.85340000  0.74360000  1.0
  H  H31  1  0.23900000  0.94120000  0.85560000  1.0
  H  H32  1  0.89720000  0.23480000  0.07730000  1.0
  H  H33  1  0.82860000  0.32830000  0.19330000  1.0
  H  H34  1  0.79870000  0.35340000  0.74360000  1.0
  H  H35  1  0.73900000  0.44120000  0.85560000  1.0
  C  C36  1  0.31640000  0.21040000  0.54610000  1.0
  C  C37  1  0.81640000  0.71040000  0.54610000  1.0
  C  C38  1  0.68360000  0.21040000  0.95390000  1.0
  C  C39  1  0.18360000  0.71040000  0.95390000  1.0
  C  C40  1  0.68360000  0.78960000  0.45390000  1.0
  C  C41  1  0.18360000  0.28960000  0.45390000  1.0
  C  C42  1  0.31640000  0.78960000  0.04610000  1.0
  C  C43  1  0.81640000  0.28960000  0.04610000  1.0
  N  N44  1  0.31300000  0.11040000  0.38140000  1.0
  N  N45  1  0.81300000  0.61040000  0.38140000  1.0
  N  N46  1  0.68700000  0.11040000  0.11860000  1.0
  N  N47  1  0.18700000  0.61040000  0.11860000  1.0
  N  N48  1  0.68700000  0.88960000  0.61860000  1.0
  N  N49  1  0.18700000  0.38960000  0.61860000  1.0
  N  N50  1  0.31300000  0.88960000  0.88140000  1.0
  N  N51  1  0.81300000  0.38960000  0.88140000  1.0
