# generated using pymatgen
data_AgH8(CN)2
_symmetry_space_group_name_H-M   'P 1'
_cell_length_a   10.41800000
_cell_length_b   10.52100000
_cell_length_c   6.28700000
_cell_angle_alpha   90.00000000
_cell_angle_beta   115.16000000
_cell_angle_gamma   90.00000000
_symmetry_Int_Tables_number   1
_chemical_formula_structural   AgH8(CN)2
_chemical_formula_sum   'Ag4 H32 C8 N8'
_cell_volume   623.72471615
_cell_formula_units_Z   4
loop_
 _symmetry_equiv_pos_site_id
 _symmetry_equiv_pos_as_xyz
  1  'x, y, z'
loop_
 _atom_site_type_symbol
 _atom_site_label
 _atom_site_symmetry_multiplicity
 _atom_site_fract_x
 _atom_site_fract_y
 _atom_site_fract_z
 _atom_site_occupancy
  Ag  Ag0  1  0.50000000  0.00000000  0.50000000  1.0
  Ag  Ag1  1  0.00000000  0.50000000  0.50000000  1.0
  Ag  Ag2  1  0.50000000  0.00000000  0.00000000  1.0
  Ag  Ag3  1  0.00000000  0.50000000  0.00000000  1.0
  H  H4  1  0.30760000  0.16920000  0.26430000  1.0
  H  H5  1  0.22650000  0.05430000  0.33470000  1.0
  H  H6  1  0.39710000  0.26540000  0.57590000  1.0
  H  H7  1  0.32940000  0.17250000  0.69470000  1.0
  H  H8  1  0.80760000  0.66920000  0.26430000  1.0
  H  H9  1  0.72650000  0.55430000  0.33470000  1.0
  H  H10  1  0.89710000  0.76540000  0.57590000  1.0
  H  H11  1  0.82940000  0.67250000  0.69470000  1.0
  H  H12  1  0.69240000  0.16920000  0.23570000  1.0
  H  H13  1  0.77350000  0.05430000  0.16530000  1.0
  H  H14  1  0.60290000  0.26540000  0.92410000  1.0
  H  H15  1  0.67060000  0.17250000  0.80530000  1.0
  H  H16  1  0.19240000  0.66920000  0.23570000  1.0
  H  H17  1  0.27350000  0.55430000  0.16530000  1.0
  H  H18  1  0.10290000  0.76540000  0.92410000  1.0
  H  H19  1  0.17060000  0.67250000  0.80530000  1.0
  H  H20  1  0.69240000  0.83080000  0.73570000  1.0
  H  H21  1  0.77350000  0.94570000  0.66530000  1.0
  H  H22  1  0.60290000  0.73460000  0.42410000  1.0
  H  H23  1  0.67060000  0.82750000  0.30530000  1.0
  H  H24  1  0.19240000  0.33080000  0.73570000  1.0
  H  H25  1  0.27350000  0.44570000  0.66530000  1.0
  H  H26  1  0.10290000  0.23460000  0.42410000  1.0
  H  H27  1  0.17060000  0.32750000  0.30530000  1.0
  H  H28  1  0.30760000  0.83080000  0.76430000  1.0
  H  H29  1  0.22650000  0.94570000  0.83470000  1.0
  H  H30  1  0.39710000  0.73460000  0.07590000  1.0
  H  H31  1  0.32940000  0.82750000  0.19470000  1.0
  H  H32  1  0.80760000  0.33080000  0.76430000  1.0
  H  H33  1  0.72650000  0.44570000  0.83470000  1.0
  H  H34  1  0.89710000  0.23460000  0.07590000  1.0
  H  H35  1  0.82940000  0.32750000  0.19470000  1.0
  C  C36  1  0.31650000  0.21060000  0.54640000  1.0
  C  C37  1  0.81650000  0.71060000  0.54640000  1.0
  C  C38  1  0.68350000  0.21060000  0.95360000  1.0
  C  C39  1  0.18350000  0.71060000  0.95360000  1.0
  C  C40  1  0.68350000  0.78940000  0.45360000  1.0
  C  C41  1  0.18350000  0.28940000  0.45360000  1.0
  C  C42  1  0.31650000  0.78940000  0.04640000  1.0
  C  C43  1  0.81650000  0.28940000  0.04640000  1.0
  N  N44  1  0.31270000  0.10980000  0.38160000  1.0
  N  N45  1  0.81270000  0.60980000  0.38160000  1.0
  N  N46  1  0.68730000  0.10980000  0.11840000  1.0
  N  N47  1  0.18730000  0.60980000  0.11840000  1.0
  N  N48  1  0.68730000  0.89020000  0.61840000  1.0
  N  N49  1  0.18730000  0.39020000  0.61840000  1.0
  N  N50  1  0.31270000  0.89020000  0.88160000  1.0
  N  N51  1  0.81270000  0.39020000  0.88160000  1.0
