# generated using pymatgen
data_AgH8(CN)2
_symmetry_space_group_name_H-M   'P 1'
_cell_length_a   10.28750000
_cell_length_b   10.61250000
_cell_length_c   6.24000000
_cell_angle_alpha   90.00000000
_cell_angle_beta   114.68800000
_cell_angle_gamma   90.00000000
_symmetry_Int_Tables_number   1
_chemical_formula_structural   AgH8(CN)2
_chemical_formula_sum   'Ag4 H32 C8 N8'
_cell_volume   618.98882227
_cell_formula_units_Z   4
loop_
 _symmetry_equiv_pos_site_id
 _symmetry_equiv_pos_as_xyz
  1  'x, y, z'
loop_
 _atom_site_type_symbol
 _atom_site_label
 _atom_site_symmetry_multiplicity
 _atom_site_fract_x
 _atom_site_fract_y
 _atom_site_fract_z
 _atom_site_occupancy
  Ag  Ag0  1  0.50000000  0.00000000  0.50000000  1.0
  Ag  Ag1  1  0.00000000  0.50000000  0.50000000  1.0
  Ag  Ag2  1  0.50000000  0.00000000  0.00000000  1.0
  Ag  Ag3  1  0.00000000  0.50000000  0.00000000  1.0
  H  H4  1  0.40010000  0.26610000  0.57030000  1.0
  H  H5  1  0.33240000  0.17370000  0.69920000  1.0
  H  H6  1  0.29540000  0.14410000  0.23680000  1.0
  H  H7  1  0.23490000  0.05750000  0.35920000  1.0
  H  H8  1  0.90010000  0.76610000  0.57030000  1.0
  H  H9  1  0.83240000  0.67370000  0.69920000  1.0
  H  H10  1  0.79540000  0.64410000  0.23680000  1.0
  H  H11  1  0.73490000  0.55750000  0.35920000  1.0
  H  H12  1  0.59990000  0.26610000  0.92970000  1.0
  H  H13  1  0.66760000  0.17370000  0.80080000  1.0
  H  H14  1  0.70460000  0.14410000  0.26320000  1.0
  H  H15  1  0.76510000  0.05750000  0.14080000  1.0
  H  H16  1  0.09990000  0.76610000  0.92970000  1.0
  H  H17  1  0.16760000  0.67370000  0.80080000  1.0
  H  H18  1  0.20460000  0.64410000  0.26320000  1.0
  H  H19  1  0.26510000  0.55750000  0.14080000  1.0
  H  H20  1  0.59990000  0.73390000  0.42970000  1.0
  H  H21  1  0.66760000  0.82630000  0.30080000  1.0
  H  H22  1  0.70460000  0.85590000  0.76320000  1.0
  H  H23  1  0.76510000  0.94250000  0.64080000  1.0
  H  H24  1  0.09990000  0.23390000  0.42970000  1.0
  H  H25  1  0.16760000  0.32630000  0.30080000  1.0
  H  H26  1  0.20460000  0.35590000  0.76320000  1.0
  H  H27  1  0.26510000  0.44250000  0.64080000  1.0
  H  H28  1  0.40010000  0.73390000  0.07030000  1.0
  H  H29  1  0.33240000  0.82630000  0.19920000  1.0
  H  H30  1  0.29540000  0.85590000  0.73680000  1.0
  H  H31  1  0.23490000  0.94250000  0.85920000  1.0
  H  H32  1  0.90010000  0.23390000  0.07030000  1.0
  H  H33  1  0.83240000  0.32630000  0.19920000  1.0
  H  H34  1  0.79540000  0.35590000  0.73680000  1.0
  H  H35  1  0.73490000  0.44250000  0.85920000  1.0
  C  C36  1  0.31740000  0.21090000  0.54520000  1.0
  C  C37  1  0.81740000  0.71090000  0.54520000  1.0
  C  C38  1  0.68260000  0.21090000  0.95480000  1.0
  C  C39  1  0.18260000  0.71090000  0.95480000  1.0
  C  C40  1  0.68260000  0.78910000  0.45480000  1.0
  C  C41  1  0.18260000  0.28910000  0.45480000  1.0
  C  C42  1  0.31740000  0.78910000  0.04520000  1.0
  C  C43  1  0.81740000  0.28910000  0.04520000  1.0
  N  N44  1  0.31110000  0.10930000  0.38060000  1.0
  N  N45  1  0.81110000  0.60930000  0.38060000  1.0
  N  N46  1  0.68890000  0.10930000  0.11940000  1.0
  N  N47  1  0.18890000  0.60930000  0.11940000  1.0
  N  N48  1  0.68890000  0.89070000  0.61940000  1.0
  N  N49  1  0.18890000  0.39070000  0.61940000  1.0
  N  N50  1  0.31110000  0.89070000  0.88060000  1.0
  N  N51  1  0.81110000  0.39070000  0.88060000  1.0
