# generated using pymatgen
data_Zn2P2H16C13(NO3)2
_symmetry_space_group_name_H-M   'P 1'
_cell_length_a   9.77140000
_cell_length_b   9.97970000
_cell_length_c   22.92290000
_cell_angle_alpha   90.00000000
_cell_angle_beta   91.53500000
_cell_angle_gamma   90.00000000
_symmetry_Int_Tables_number   1
_chemical_formula_structural   Zn2P2H16C13(NO3)2
_chemical_formula_sum   'Zn8 P8 H64 C52 N8 O24'
_cell_volume   2234.53912048
_cell_formula_units_Z   4
loop_
 _symmetry_equiv_pos_site_id
 _symmetry_equiv_pos_as_xyz
  1  'x, y, z'
loop_
 _atom_site_type_symbol
 _atom_site_label
 _atom_site_symmetry_multiplicity
 _atom_site_fract_x
 _atom_site_fract_y
 _atom_site_fract_z
 _atom_site_occupancy
  Zn  Zn0  1  0.10752000  0.31796000  0.01087000  1.0
  Zn  Zn1  1  0.34638000  0.35883000  0.50370000  1.0
  Zn  Zn2  1  0.39248000  0.81796000  0.98913000  1.0
  Zn  Zn3  1  0.15362000  0.85883000  0.49630000  1.0
  Zn  Zn4  1  0.89248000  0.68204000  0.98913000  1.0
  Zn  Zn5  1  0.65362000  0.64117000  0.49630000  1.0
  Zn  Zn6  1  0.60752000  0.18204000  0.01087000  1.0
  Zn  Zn7  1  0.84638000  0.14117000  0.50370000  1.0
  P  P8  1  0.63098000  0.33706000  0.44619000  1.0
  P  P9  1  0.82776000  0.41251000  0.05985000  1.0
  P  P10  1  0.86902000  0.83706000  0.55381000  1.0
  P  P11  1  0.67224000  0.91251000  0.94015000  1.0
  P  P12  1  0.36902000  0.66294000  0.55381000  1.0
  P  P13  1  0.17224000  0.58749000  0.94015000  1.0
  P  P14  1  0.13098000  0.16294000  0.44619000  1.0
  P  P15  1  0.32776000  0.08749000  0.05985000  1.0
  H  H16  1  0.51940000  0.42170000  0.60810000  1.0
  H  H17  1  0.66310000  0.31690000  0.67540000  1.0
  H  H18  1  0.54410000  0.96080000  0.60680000  1.0
  H  H19  1  0.39930000  0.07430000  0.54260000  1.0
  H  H20  1  0.80270000  0.02840000  0.66790000  1.0
  H  H21  1  0.67570000  0.96640000  0.70080000  1.0
  H  H22  1  0.80620000  0.21250000  0.73440000  1.0
  H  H23  1  0.68200000  0.14580000  0.76820000  1.0
  H  H24  1  0.82190000  0.95690000  0.79070000  1.0
  H  H25  1  0.94570000  0.02480000  0.75770000  1.0
  H  H26  1  0.80690000  0.28130000  0.83410000  1.0
  H  H27  1  0.89470000  0.37110000  0.92020000  1.0
  H  H28  1  0.03730000  0.95170000  0.86430000  1.0
  H  H29  1  0.12100000  0.04960000  0.94940000  1.0
  H  H30  1  0.67850000  0.33515000  0.39470000  1.0
  H  H31  1  0.78920000  0.46570000  0.10830000  1.0
  H  H32  1  0.98060000  0.92170000  0.39190000  1.0
  H  H33  1  0.83690000  0.81690000  0.32460000  1.0
  H  H34  1  0.95590000  0.46080000  0.39320000  1.0
  H  H35  1  0.10070000  0.57430000  0.45740000  1.0
  H  H36  1  0.69730000  0.52840000  0.33210000  1.0
  H  H37  1  0.82430000  0.46640000  0.29920000  1.0
  H  H38  1  0.69380000  0.71250000  0.26560000  1.0
  H  H39  1  0.81800000  0.64580000  0.23180000  1.0
  H  H40  1  0.67810000  0.45690000  0.20930000  1.0
  H  H41  1  0.55430000  0.52480000  0.24230000  1.0
  H  H42  1  0.69310000  0.78130000  0.16590000  1.0
  H  H43  1  0.60530000  0.87110000  0.07980000  1.0
  H  H44  1  0.46270000  0.45170000  0.13570000  1.0
  H  H45  1  0.37900000  0.54960000  0.05060000  1.0
  H  H46  1  0.82150000  0.83515000  0.60530000  1.0
  H  H47  1  0.71080000  0.96570000  0.89170000  1.0
  H  H48  1  0.48060000  0.57830000  0.39190000  1.0
  H  H49  1  0.33690000  0.68310000  0.32460000  1.0
  H  H50  1  0.45590000  0.03920000  0.39320000  1.0
  H  H51  1  0.60070000  0.92570000  0.45740000  1.0
  H  H52  1  0.19730000  0.97160000  0.33210000  1.0
  H  H53  1  0.32430000  0.03360000  0.29920000  1.0
  H  H54  1  0.19380000  0.78750000  0.26560000  1.0
  H  H55  1  0.31800000  0.85420000  0.23180000  1.0
  H  H56  1  0.17810000  0.04310000  0.20930000  1.0
  H  H57  1  0.05430000  0.97520000  0.24230000  1.0
  H  H58  1  0.19310000  0.71870000  0.16590000  1.0
  H  H59  1  0.10530000  0.62890000  0.07980000  1.0
  H  H60  1  0.96270000  0.04830000  0.13570000  1.0
  H  H61  1  0.87900000  0.95040000  0.05060000  1.0
  H  H62  1  0.32150000  0.66485000  0.60530000  1.0
  H  H63  1  0.21080000  0.53430000  0.89170000  1.0
  H  H64  1  0.01940000  0.07830000  0.60810000  1.0
  H  H65  1  0.16310000  0.18310000  0.67540000  1.0
  H  H66  1  0.04410000  0.53920000  0.60680000  1.0
  H  H67  1  0.89930000  0.42570000  0.54260000  1.0
  H  H68  1  0.30270000  0.47160000  0.66790000  1.0
  H  H69  1  0.17570000  0.53360000  0.70080000  1.0
  H  H70  1  0.30620000  0.28750000  0.73440000  1.0
  H  H71  1  0.18200000  0.35420000  0.76820000  1.0
  H  H72  1  0.32190000  0.54310000  0.79070000  1.0
  H  H73  1  0.44570000  0.47520000  0.75770000  1.0
  H  H74  1  0.30690000  0.21870000  0.83410000  1.0
  H  H75  1  0.39470000  0.12890000  0.92020000  1.0
  H  H76  1  0.53730000  0.54830000  0.86430000  1.0
  H  H77  1  0.62100000  0.45040000  0.94940000  1.0
  H  H78  1  0.17850000  0.16485000  0.39470000  1.0
  H  H79  1  0.28920000  0.03430000  0.10830000  1.0
  C  C80  1  0.52380000  0.32664000  0.60816000  1.0
  C  C81  1  0.61109000  0.26475000  0.64820000  1.0
  C  C82  1  0.62259000  0.12532000  0.64852000  1.0
  C  C83  1  0.54061000  0.05587000  0.60805000  1.0
  C  C84  1  0.45414000  0.12421000  0.56965000  1.0
  C  C85  1  0.71956000  0.05155000  0.68944000  1.0
  C  C86  1  0.76355000  0.12615000  0.74493000  1.0
  C  C87  1  0.86510000  0.04385000  0.78161000  1.0
  C  C88  1  0.91484000  0.10673000  0.83809000  1.0
  C  C89  1  0.87240000  0.23210000  0.85674000  1.0
  C  C90  1  0.92540000  0.28532000  0.90830000  1.0
  C  C91  1  0.00772000  0.03900000  0.87449000  1.0
  C  C92  1  0.05727000  0.09781000  0.92539000  1.0
  C  C93  1  0.97620000  0.82664000  0.39184000  1.0
  C  C94  1  0.88891000  0.76475000  0.35180000  1.0
  C  C95  1  0.87741000  0.62532000  0.35148000  1.0
  C  C96  1  0.95939000  0.55587000  0.39195000  1.0
  C  C97  1  0.04586000  0.62421000  0.43035000  1.0
  C  C98  1  0.78044000  0.55155000  0.31056000  1.0
  C  C99  1  0.73645000  0.62615000  0.25507000  1.0
  C  C100  1  0.63490000  0.54385000  0.21839000  1.0
  C  C101  1  0.58516000  0.60673000  0.16191000  1.0
  C  C102  1  0.62760000  0.73210000  0.14326000  1.0
  C  C103  1  0.57460000  0.78532000  0.09170000  1.0
  C  C104  1  0.49228000  0.53900000  0.12551000  1.0
  C  C105  1  0.44273000  0.59781000  0.07461000  1.0
  C  C106  1  0.47620000  0.67336000  0.39184000  1.0
  C  C107  1  0.38891000  0.73525000  0.35180000  1.0
  C  C108  1  0.37741000  0.87468000  0.35148000  1.0
  C  C109  1  0.45939000  0.94413000  0.39195000  1.0
  C  C110  1  0.54586000  0.87579000  0.43035000  1.0
  C  C111  1  0.28044000  0.94845000  0.31056000  1.0
  C  C112  1  0.23645000  0.87385000  0.25507000  1.0
  C  C113  1  0.13490000  0.95615000  0.21839000  1.0
  C  C114  1  0.08516000  0.89327000  0.16191000  1.0
  C  C115  1  0.12760000  0.76790000  0.14326000  1.0
  C  C116  1  0.07460000  0.71468000  0.09170000  1.0
  C  C117  1  0.99228000  0.96100000  0.12551000  1.0
  C  C118  1  0.94273000  0.90219000  0.07461000  1.0
  C  C119  1  0.02380000  0.17336000  0.60816000  1.0
  C  C120  1  0.11109000  0.23525000  0.64820000  1.0
  C  C121  1  0.12259000  0.37468000  0.64852000  1.0
  C  C122  1  0.04061000  0.44413000  0.60805000  1.0
  C  C123  1  0.95414000  0.37579000  0.56965000  1.0
  C  C124  1  0.21956000  0.44845000  0.68944000  1.0
  C  C125  1  0.26355000  0.37385000  0.74493000  1.0
  C  C126  1  0.36510000  0.45615000  0.78161000  1.0
  C  C127  1  0.41484000  0.39327000  0.83809000  1.0
  C  C128  1  0.37240000  0.26790000  0.85674000  1.0
  C  C129  1  0.42540000  0.21468000  0.90830000  1.0
  C  C130  1  0.50772000  0.46100000  0.87449000  1.0
  C  C131  1  0.55727000  0.40219000  0.92539000  1.0
  N  N132  1  0.44487000  0.25909000  0.56921000  1.0
  N  N133  1  0.01817000  0.22139000  0.94222000  1.0
  N  N134  1  0.05513000  0.75909000  0.43079000  1.0
  N  N135  1  0.48183000  0.72139000  0.05778000  1.0
  N  N136  1  0.55513000  0.74091000  0.43079000  1.0
  N  N137  1  0.98183000  0.77861000  0.05778000  1.0
  N  N138  1  0.94487000  0.24091000  0.56921000  1.0
  N  N139  1  0.51817000  0.27861000  0.94222000  1.0
  O  O140  1  0.97885000  0.37699000  0.06909000  1.0
  O  O141  1  0.47449000  0.34724000  0.43883000  1.0
  O  O142  1  0.67393000  0.20684000  0.47479000  1.0
  O  O143  1  0.69313000  0.45840000  0.47651000  1.0
  O  O144  1  0.74016000  0.29139000  0.05027000  1.0
  O  O145  1  0.80405000  0.51806000  0.01308000  1.0
  O  O146  1  0.52115000  0.87699000  0.93091000  1.0
  O  O147  1  0.02551000  0.84724000  0.56117000  1.0
  O  O148  1  0.82607000  0.70684000  0.52521000  1.0
  O  O149  1  0.80687000  0.95840000  0.52349000  1.0
  O  O150  1  0.75984000  0.79139000  0.94973000  1.0
  O  O151  1  0.69595000  0.01806000  0.98692000  1.0
  O  O152  1  0.02115000  0.62301000  0.93091000  1.0
  O  O153  1  0.52551000  0.65276000  0.56117000  1.0
  O  O154  1  0.32607000  0.79316000  0.52521000  1.0
  O  O155  1  0.30687000  0.54160000  0.52349000  1.0
  O  O156  1  0.25984000  0.70861000  0.94973000  1.0
  O  O157  1  0.19595000  0.48194000  0.98692000  1.0
  O  O158  1  0.47885000  0.12301000  0.06909000  1.0
  O  O159  1  0.97449000  0.15276000  0.43883000  1.0
  O  O160  1  0.17393000  0.29316000  0.47479000  1.0
  O  O161  1  0.19313000  0.04160000  0.47651000  1.0
  O  O162  1  0.24016000  0.20861000  0.05027000  1.0
  O  O163  1  0.30405000  0.98194000  0.01308000  1.0
