# generated using pymatgen
data_CdH8C10N5Cl
_symmetry_space_group_name_H-M   'P 1'
_cell_length_a   13.90170000
_cell_length_b   13.90170000
_cell_length_c   13.90170000
_cell_angle_alpha   108.01700000
_cell_angle_beta   108.01700000
_cell_angle_gamma   108.01700000
_symmetry_Int_Tables_number   1
_chemical_formula_structural   CdH8C10N5Cl
_chemical_formula_sum   'Cd6 H48 C60 N30 Cl6'
_cell_volume   2172.37063009
_cell_formula_units_Z   6
loop_
 _symmetry_equiv_pos_site_id
 _symmetry_equiv_pos_as_xyz
  1  'x, y, z'
loop_
 _atom_site_type_symbol
 _atom_site_label
 _atom_site_symmetry_multiplicity
 _atom_site_fract_x
 _atom_site_fract_y
 _atom_site_fract_z
 _atom_site_occupancy
  Cd  Cd0  1  0.96475000  0.47813000  0.61612000  1.0
  Cd  Cd1  1  0.61612000  0.96475000  0.47813000  1.0
  Cd  Cd2  1  0.47813000  0.61612000  0.96475000  1.0
  Cd  Cd3  1  0.03525000  0.52187000  0.38388000  1.0
  Cd  Cd4  1  0.38388000  0.03525000  0.52187000  1.0
  Cd  Cd5  1  0.52187000  0.38388000  0.03525000  1.0
  H  H6  1  0.71140000  0.46930000  0.41420000  1.0
  H  H7  1  0.57400000  0.14360000  0.25960000  1.0
  H  H8  1  0.72520000  0.10820000  0.38500000  1.0
  H  H9  1  0.84280000  0.20350000  0.41780000  1.0
  H  H10  1  0.02310000  0.45560000  0.86920000  1.0
  H  H11  1  0.00510000  0.39880000  0.00490000  1.0
  H  H12  1  0.87700000  0.21900000  0.95400000  1.0
  H  H13  1  0.76020000  0.09130000  0.76680000  1.0
  H  H14  1  0.41420000  0.71140000  0.46930000  1.0
  H  H15  1  0.25960000  0.57400000  0.14360000  1.0
  H  H16  1  0.38500000  0.72520000  0.10820000  1.0
  H  H17  1  0.41780000  0.84280000  0.20350000  1.0
  H  H18  1  0.86920000  0.02310000  0.45560000  1.0
  H  H19  1  0.00490000  0.00510000  0.39880000  1.0
  H  H20  1  0.95400000  0.87700000  0.21900000  1.0
  H  H21  1  0.76680000  0.76020000  0.09130000  1.0
  H  H22  1  0.46930000  0.41420000  0.71140000  1.0
  H  H23  1  0.14360000  0.25960000  0.57400000  1.0
  H  H24  1  0.10820000  0.38500000  0.72520000  1.0
  H  H25  1  0.20350000  0.41780000  0.84280000  1.0
  H  H26  1  0.45560000  0.86920000  0.02310000  1.0
  H  H27  1  0.39880000  0.00490000  0.00510000  1.0
  H  H28  1  0.21900000  0.95400000  0.87700000  1.0
  H  H29  1  0.09130000  0.76680000  0.76020000  1.0
  H  H30  1  0.28860000  0.53070000  0.58580000  1.0
  H  H31  1  0.42600000  0.85640000  0.74040000  1.0
  H  H32  1  0.27480000  0.89180000  0.61500000  1.0
  H  H33  1  0.15720000  0.79650000  0.58220000  1.0
  H  H34  1  0.97690000  0.54440000  0.13080000  1.0
  H  H35  1  0.99490000  0.60120000  0.99510000  1.0
  H  H36  1  0.12300000  0.78100000  0.04600000  1.0
  H  H37  1  0.23980000  0.90870000  0.23320000  1.0
  H  H38  1  0.58580000  0.28860000  0.53070000  1.0
  H  H39  1  0.74040000  0.42600000  0.85640000  1.0
  H  H40  1  0.61500000  0.27480000  0.89180000  1.0
  H  H41  1  0.58220000  0.15720000  0.79650000  1.0
  H  H42  1  0.13080000  0.97690000  0.54440000  1.0
  H  H43  1  0.99510000  0.99490000  0.60120000  1.0
  H  H44  1  0.04600000  0.12300000  0.78100000  1.0
  H  H45  1  0.23320000  0.23980000  0.90870000  1.0
  H  H46  1  0.53070000  0.58580000  0.28860000  1.0
  H  H47  1  0.85640000  0.74040000  0.42600000  1.0
  H  H48  1  0.89180000  0.61500000  0.27480000  1.0
  H  H49  1  0.79650000  0.58220000  0.15720000  1.0
  H  H50  1  0.54440000  0.13080000  0.97690000  1.0
  H  H51  1  0.60120000  0.99510000  0.99490000  1.0
  H  H52  1  0.78100000  0.04600000  0.12300000  1.0
  H  H53  1  0.90870000  0.23320000  0.23980000  1.0
  C  C54  1  0.69930000  0.39500000  0.39530000  1.0
  C  C55  1  0.62330000  0.21890000  0.31050000  1.0
  C  C56  1  0.77650000  0.18820000  0.43130000  1.0
  C  C57  1  0.81140000  0.21540000  0.55370000  1.0
  C  C58  1  0.90070000  0.30570000  0.73500000  1.0
  C  C59  1  0.97070000  0.38310000  0.84860000  1.0
  C  C60  1  0.95970000  0.34860000  0.92860000  1.0
  C  C61  1  0.88190000  0.24010000  0.89770000  1.0
  C  C62  1  0.81250000  0.16360000  0.78680000  1.0
  C  C63  1  0.82280000  0.19740000  0.70520000  1.0
  C  C64  1  0.39530000  0.69930000  0.39500000  1.0
  C  C65  1  0.31050000  0.62330000  0.21890000  1.0
  C  C66  1  0.43130000  0.77650000  0.18820000  1.0
  C  C67  1  0.55370000  0.81140000  0.21540000  1.0
  C  C68  1  0.73500000  0.90070000  0.30570000  1.0
  C  C69  1  0.84860000  0.97070000  0.38310000  1.0
  C  C70  1  0.92860000  0.95970000  0.34860000  1.0
  C  C71  1  0.89770000  0.88190000  0.24010000  1.0
  C  C72  1  0.78680000  0.81250000  0.16360000  1.0
  C  C73  1  0.70520000  0.82280000  0.19740000  1.0
  C  C74  1  0.39500000  0.39530000  0.69930000  1.0
  C  C75  1  0.21890000  0.31050000  0.62330000  1.0
  C  C76  1  0.18820000  0.43130000  0.77650000  1.0
  C  C77  1  0.21540000  0.55370000  0.81140000  1.0
  C  C78  1  0.30570000  0.73500000  0.90070000  1.0
  C  C79  1  0.38310000  0.84860000  0.97070000  1.0
  C  C80  1  0.34860000  0.92860000  0.95970000  1.0
  C  C81  1  0.24010000  0.89770000  0.88190000  1.0
  C  C82  1  0.16360000  0.78680000  0.81250000  1.0
  C  C83  1  0.19740000  0.70520000  0.82280000  1.0
  C  C84  1  0.30070000  0.60500000  0.60470000  1.0
  C  C85  1  0.37670000  0.78110000  0.68950000  1.0
  C  C86  1  0.22350000  0.81180000  0.56870000  1.0
  C  C87  1  0.18860000  0.78460000  0.44630000  1.0
  C  C88  1  0.09930000  0.69430000  0.26500000  1.0
  C  C89  1  0.02930000  0.61690000  0.15140000  1.0
  C  C90  1  0.04030000  0.65140000  0.07140000  1.0
  C  C91  1  0.11810000  0.75990000  0.10230000  1.0
  C  C92  1  0.18750000  0.83640000  0.21320000  1.0
  C  C93  1  0.17720000  0.80260000  0.29480000  1.0
  C  C94  1  0.60470000  0.30070000  0.60500000  1.0
  C  C95  1  0.68950000  0.37670000  0.78110000  1.0
  C  C96  1  0.56870000  0.22350000  0.81180000  1.0
  C  C97  1  0.44630000  0.18860000  0.78460000  1.0
  C  C98  1  0.26500000  0.09930000  0.69430000  1.0
  C  C99  1  0.15140000  0.02930000  0.61690000  1.0
  C  C100  1  0.07140000  0.04030000  0.65140000  1.0
  C  C101  1  0.10230000  0.11810000  0.75990000  1.0
  C  C102  1  0.21320000  0.18750000  0.83640000  1.0
  C  C103  1  0.29480000  0.17720000  0.80260000  1.0
  C  C104  1  0.60500000  0.60470000  0.30070000  1.0
  C  C105  1  0.78110000  0.68950000  0.37670000  1.0
  C  C106  1  0.81180000  0.56870000  0.22350000  1.0
  C  C107  1  0.78460000  0.44630000  0.18860000  1.0
  C  C108  1  0.69430000  0.26500000  0.09930000  1.0
  C  C109  1  0.61690000  0.15140000  0.02930000  1.0
  C  C110  1  0.65140000  0.07140000  0.04030000  1.0
  C  C111  1  0.75990000  0.10230000  0.11810000  1.0
  C  C112  1  0.83640000  0.21320000  0.18750000  1.0
  C  C113  1  0.80260000  0.29480000  0.17720000  1.0
  N  N114  1  0.60560000  0.30670000  0.30640000  1.0
  N  N115  1  0.77280000  0.36900000  0.45370000  1.0
  N  N116  1  0.72100000  0.25400000  0.39730000  1.0
  N  N117  1  0.89290000  0.31680000  0.63720000  1.0
  N  N118  1  0.76510000  0.13950000  0.58680000  1.0
  N  N119  1  0.30640000  0.60560000  0.30670000  1.0
  N  N120  1  0.45370000  0.77280000  0.36900000  1.0
  N  N121  1  0.39730000  0.72100000  0.25400000  1.0
  N  N122  1  0.63720000  0.89290000  0.31680000  1.0
  N  N123  1  0.58680000  0.76510000  0.13950000  1.0
  N  N124  1  0.30670000  0.30640000  0.60560000  1.0
  N  N125  1  0.36900000  0.45370000  0.77280000  1.0
  N  N126  1  0.25400000  0.39730000  0.72100000  1.0
  N  N127  1  0.31680000  0.63720000  0.89290000  1.0
  N  N128  1  0.13950000  0.58680000  0.76510000  1.0
  N  N129  1  0.39440000  0.69330000  0.69360000  1.0
  N  N130  1  0.22720000  0.63100000  0.54630000  1.0
  N  N131  1  0.27900000  0.74600000  0.60270000  1.0
  N  N132  1  0.10710000  0.68320000  0.36280000  1.0
  N  N133  1  0.23490000  0.86050000  0.41320000  1.0
  N  N134  1  0.69360000  0.39440000  0.69330000  1.0
  N  N135  1  0.54630000  0.22720000  0.63100000  1.0
  N  N136  1  0.60270000  0.27900000  0.74600000  1.0
  N  N137  1  0.36280000  0.10710000  0.68320000  1.0
  N  N138  1  0.41320000  0.23490000  0.86050000  1.0
  N  N139  1  0.69330000  0.69360000  0.39440000  1.0
  N  N140  1  0.63100000  0.54630000  0.22720000  1.0
  N  N141  1  0.74600000  0.60270000  0.27900000  1.0
  N  N142  1  0.68320000  0.36280000  0.10710000  1.0
  N  N143  1  0.86050000  0.41320000  0.23490000  1.0
  Cl  Cl144  1  0.96415000  0.61849000  0.52538000  1.0
  Cl  Cl145  1  0.52538000  0.96415000  0.61849000  1.0
  Cl  Cl146  1  0.61849000  0.52538000  0.96415000  1.0
  Cl  Cl147  1  0.03585000  0.38151000  0.47462000  1.0
  Cl  Cl148  1  0.47462000  0.03585000  0.38151000  1.0
  Cl  Cl149  1  0.38151000  0.47462000  0.03585000  1.0
