# generated using pymatgen
data_Zn5H32C42O23
_symmetry_space_group_name_H-M   'P 1'
_cell_length_a   15.51900000
_cell_length_b   16.10200000
_cell_length_c   22.98200000
_cell_angle_alpha   90.00000000
_cell_angle_beta   90.00000000
_cell_angle_gamma   100.20000000
_symmetry_Int_Tables_number   1
_chemical_formula_structural   Zn5H32C42O23
_chemical_formula_sum   'Zn20 H128 C168 O92'
_cell_volume   5652.13854069
_cell_formula_units_Z   4
loop_
 _symmetry_equiv_pos_site_id
 _symmetry_equiv_pos_as_xyz
  1  'x, y, z'
loop_
 _atom_site_type_symbol
 _atom_site_label
 _atom_site_symmetry_multiplicity
 _atom_site_fract_x
 _atom_site_fract_y
 _atom_site_fract_z
 _atom_site_occupancy
  Zn  Zn0  1  0.15664000  0.35394000  0.87750000  1.0
  Zn  Zn1  1  0.82542000  0.24668000  0.24898000  1.0
  Zn  Zn2  1  0.82542000  0.74668000  0.25102000  1.0
  Zn  Zn3  1  0.16814000  0.68942000  0.87651000  1.0
  Zn  Zn4  1  0.17458000  0.75332000  0.75102000  1.0
  Zn  Zn5  1  0.84336000  0.14606000  0.37750000  1.0
  Zn  Zn6  1  0.83186000  0.81058000  0.37651000  1.0
  Zn  Zn7  1  0.35240000  0.38302000  0.83717000  1.0
  Zn  Zn8  1  0.66375000  0.15101000  0.47193000  1.0
  Zn  Zn9  1  0.66375000  0.65101000  0.02807000  1.0
  Zn  Zn10  1  0.33625000  0.34899000  0.97193000  1.0
  Zn  Zn11  1  0.83186000  0.31058000  0.12348000  1.0
  Zn  Zn12  1  0.84336000  0.64606000  0.12250000  1.0
  Zn  Zn13  1  0.17458000  0.25332000  0.74898000  1.0
  Zn  Zn14  1  0.64760000  0.11698000  0.33717000  1.0
  Zn  Zn15  1  0.64760000  0.61698000  0.16283000  1.0
  Zn  Zn16  1  0.35240000  0.88302000  0.66283000  1.0
  Zn  Zn17  1  0.15664000  0.85394000  0.62250000  1.0
  Zn  Zn18  1  0.33625000  0.84899000  0.52807000  1.0
  Zn  Zn19  1  0.16814000  0.18942000  0.62349000  1.0
  H  H20  1  0.39900000  0.58130000  0.98410000  1.0
  H  H21  1  0.05860000  0.09980000  0.16220000  1.0
  H  H22  1  0.17010000  0.51500000  0.66650000  1.0
  H  H23  1  0.61320000  0.15080000  0.77090000  1.0
  H  H24  1  0.78880000  0.89640000  0.82590000  1.0
  H  H25  1  0.34420000  0.24630000  0.37060000  1.0
  H  H26  1  0.41790000  0.91960000  0.12980000  1.0
  H  H27  1  0.10840000  0.29140000  0.27100000  1.0
  H  H28  1  0.56250000  0.15570000  0.95840000  1.0
  H  H29  1  0.17010000  0.01500000  0.83350000  1.0
  H  H30  1  0.42600000  0.98990000  0.03220000  1.0
  H  H31  1  0.67600000  0.53670000  0.52370000  1.0
  H  H32  1  0.63110000  0.45550000  0.84370000  1.0
  H  H33  1  0.83920000  0.93540000  0.55700000  1.0
  H  H34  1  0.04870000  0.00370000  0.14780000  1.0
  H  H35  1  0.55820000  0.21580000  0.85550000  1.0
  H  H36  1  0.10720000  0.98970000  0.25020000  1.0
  H  H37  1  0.62500000  0.74990000  0.73270000  1.0
  H  H38  1  0.11740000  0.08780000  0.25640000  1.0
  H  H39  1  0.60100000  0.41870000  0.01590000  1.0
  H  H40  1  0.19390000  0.50520000  0.33310000  1.0
  H  H41  1  0.12830000  0.63900000  0.52170000  1.0
  H  H42  1  0.12830000  0.13900000  0.97830000  1.0
  H  H43  1  0.65580000  0.25370000  0.87060000  1.0
  H  H44  1  0.80610000  0.99480000  0.83310000  1.0
  H  H45  1  0.16080000  0.06460000  0.44300000  1.0
  H  H46  1  0.36890000  0.54450000  0.15630000  1.0
  H  H47  1  0.63380000  0.36790000  0.29570000  1.0
  H  H48  1  0.33530000  0.81970000  0.03580000  1.0
  H  H49  1  0.94140000  0.40020000  0.66220000  1.0
  H  H50  1  0.43750000  0.34430000  0.45840000  1.0
  H  H51  1  0.44180000  0.78420000  0.14450000  1.0
  H  H52  1  0.32400000  0.46330000  0.47630000  1.0
  H  H53  1  0.80610000  0.49480000  0.66690000  1.0
  H  H54  1  0.73140000  0.90510000  0.72370000  1.0
  H  H55  1  0.32400000  0.96330000  0.02370000  1.0
  H  H56  1  0.25430000  0.99560000  0.27370000  1.0
  H  H57  1  0.66880000  0.18460000  0.67900000  1.0
  H  H58  1  0.65580000  0.75370000  0.62940000  1.0
  H  H59  1  0.57400000  0.51010000  0.53220000  1.0
  H  H60  1  0.60100000  0.91870000  0.48410000  1.0
  H  H61  1  0.83920000  0.43540000  0.94300000  1.0
  H  H62  1  0.33530000  0.31970000  0.46420000  1.0
  H  H63  1  0.10720000  0.48970000  0.24980000  1.0
  H  H64  1  0.68360000  0.61150000  0.62470000  1.0
  H  H65  1  0.56250000  0.65570000  0.54160000  1.0
  H  H66  1  0.37530000  0.09070000  0.96570000  1.0
  H  H67  1  0.19390000  0.00520000  0.16690000  1.0
  H  H68  1  0.26860000  0.59490000  0.22370000  1.0
  H  H69  1  0.95130000  0.99630000  0.85220000  1.0
  H  H70  1  0.39550000  0.90490000  0.85310000  1.0
  H  H71  1  0.61320000  0.65080000  0.72910000  1.0
  H  H72  1  0.58210000  0.58040000  0.62980000  1.0
  H  H73  1  0.82990000  0.48500000  0.33350000  1.0
  H  H74  1  0.33120000  0.31540000  0.17900000  1.0
  H  H75  1  0.94140000  0.90020000  0.83780000  1.0
  H  H76  1  0.89510000  0.67640000  0.90160000  1.0
  H  H77  1  0.89160000  0.20860000  0.77100000  1.0
  H  H78  1  0.95130000  0.49630000  0.64780000  1.0
  H  H79  1  0.66470000  0.18030000  0.96420000  1.0
  H  H80  1  0.66470000  0.68030000  0.53580000  1.0
  H  H81  1  0.74570000  0.50440000  0.77370000  1.0
  H  H82  1  0.10840000  0.79140000  0.22900000  1.0
  H  H83  1  0.21120000  0.60360000  0.32590000  1.0
  H  H84  1  0.37500000  0.75010000  0.23270000  1.0
  H  H85  1  0.25430000  0.49560000  0.22630000  1.0
  H  H86  1  0.85310000  0.87190000  0.92190000  1.0
  H  H87  1  0.95160000  0.40980000  0.56530000  1.0
  H  H88  1  0.82990000  0.98500000  0.16650000  1.0
  H  H89  1  0.39550000  0.40490000  0.64690000  1.0
  H  H90  1  0.62470000  0.90930000  0.03430000  1.0
  H  H91  1  0.89160000  0.70860000  0.72900000  1.0
  H  H92  1  0.38680000  0.34920000  0.27090000  1.0
  H  H93  1  0.60450000  0.59510000  0.35310000  1.0
  H  H94  1  0.26860000  0.09490000  0.27630000  1.0
  H  H95  1  0.63110000  0.95550000  0.65630000  1.0
  H  H96  1  0.04840000  0.59020000  0.43470000  1.0
  H  H97  1  0.16080000  0.56460000  0.05700000  1.0
  H  H98  1  0.62470000  0.40930000  0.46570000  1.0
  H  H99  1  0.04870000  0.50370000  0.35220000  1.0
  H  H100  1  0.31640000  0.88850000  0.12470000  1.0
  H  H101  1  0.33120000  0.81540000  0.32100000  1.0
  H  H102  1  0.39900000  0.08130000  0.51590000  1.0
  H  H103  1  0.10490000  0.82360000  0.40160000  1.0
  H  H104  1  0.78880000  0.39640000  0.67410000  1.0
  H  H105  1  0.42600000  0.48990000  0.46780000  1.0
  H  H106  1  0.68360000  0.11150000  0.87530000  1.0
  H  H107  1  0.89280000  0.51030000  0.75020000  1.0
  H  H108  1  0.87170000  0.86100000  0.02170000  1.0
  H  H109  1  0.41790000  0.41960000  0.37020000  1.0
  H  H110  1  0.57400000  0.01010000  0.96780000  1.0
  H  H111  1  0.14690000  0.62810000  0.42190000  1.0
  H  H112  1  0.95160000  0.90980000  0.93470000  1.0
  H  H113  1  0.11740000  0.58780000  0.24360000  1.0
  H  H114  1  0.44180000  0.28420000  0.35550000  1.0
  H  H115  1  0.21120000  0.10360000  0.17410000  1.0
  H  H116  1  0.43750000  0.84430000  0.04160000  1.0
  H  H117  1  0.34420000  0.74630000  0.12940000  1.0
  H  H118  1  0.66880000  0.68460000  0.82100000  1.0
  H  H119  1  0.36620000  0.63210000  0.70430000  1.0
  H  H120  1  0.60450000  0.09510000  0.14690000  1.0
  H  H121  1  0.15340000  0.39590000  0.51300000  1.0
  H  H122  1  0.73140000  0.40510000  0.77630000  1.0
  H  H123  1  0.36620000  0.13210000  0.79570000  1.0
  H  H124  1  0.87170000  0.36100000  0.47830000  1.0
  H  H125  1  0.88260000  0.91220000  0.74360000  1.0
  H  H126  1  0.31640000  0.38850000  0.37530000  1.0
  H  H127  1  0.14690000  0.12810000  0.07810000  1.0
  H  H128  1  0.67600000  0.03670000  0.97630000  1.0
  H  H129  1  0.58210000  0.08040000  0.87020000  1.0
  H  H130  1  0.37500000  0.25010000  0.26730000  1.0
  H  H131  1  0.10490000  0.32360000  0.09840000  1.0
  H  H132  1  0.36890000  0.04450000  0.34370000  1.0
  H  H133  1  0.15340000  0.89590000  0.98700000  1.0
  H  H134  1  0.84660000  0.10410000  0.01300000  1.0
  H  H135  1  0.88260000  0.41220000  0.75640000  1.0
  H  H136  1  0.38680000  0.84920000  0.22910000  1.0
  H  H137  1  0.05860000  0.59980000  0.33780000  1.0
  H  H138  1  0.85310000  0.37190000  0.57810000  1.0
  H  H139  1  0.84660000  0.60410000  0.48700000  1.0
  H  H140  1  0.55820000  0.71580000  0.64450000  1.0
  H  H141  1  0.89510000  0.17640000  0.59840000  1.0
  H  H142  1  0.62500000  0.24990000  0.76730000  1.0
  H  H143  1  0.74570000  0.00440000  0.72630000  1.0
  H  H144  1  0.04840000  0.09020000  0.06530000  1.0
  H  H145  1  0.37530000  0.59070000  0.53430000  1.0
  H  H146  1  0.63380000  0.86790000  0.20430000  1.0
  H  H147  1  0.89280000  0.01030000  0.74980000  1.0
  C  C148  1  0.62850000  0.37540000  0.38228000  1.0
  C  C149  1  0.83810000  0.05710000  0.09454000  1.0
  C  C150  1  0.61810000  0.70650000  0.64772000  1.0
  C  C151  1  0.77620000  0.18230000  0.62991000  1.0
  C  C152  1  0.84850000  0.05570000  0.03474000  1.0
  C  C153  1  0.16190000  0.94290000  0.90546000  1.0
  C  C154  1  0.86350000  0.41050000  0.45996000  1.0
  C  C155  1  0.36290000  0.57510000  0.01667000  1.0
  C  C156  1  0.08800000  0.05750000  0.14480000  1.0
  C  C157  1  0.77960000  0.43630000  0.93984000  1.0
  C  C158  1  0.37940000  0.51410000  0.68568000  1.0
  C  C159  1  0.16100000  0.51510000  0.62650000  1.0
  C  C160  1  0.00560000  0.19810000  0.68747000  1.0
  C  C161  1  0.23780000  0.09300000  0.54770000  1.0
  C  C162  1  0.61280000  0.01180000  0.08303000  1.0
  C  C163  1  0.17610000  0.86310000  0.87569000  1.0
  C  C164  1  0.61740000  0.13730000  0.95022000  1.0
  C  C165  1  0.89780000  0.42200000  0.58206000  1.0
  C  C166  1  0.00560000  0.69810000  0.81253000  1.0
  C  C167  1  0.99440000  0.30190000  0.18747000  1.0
  C  C168  1  0.64230000  0.20320000  0.78824000  1.0
  C  C169  1  0.25560000  0.55090000  0.11365000  1.0
  C  C170  1  0.37940000  0.01410000  0.81432000  1.0
  C  C171  1  0.77960000  0.93630000  0.56016000  1.0
  C  C172  1  0.72720000  0.92470000  0.51083000  1.0
  C  C173  1  0.16190000  0.44290000  0.59454000  1.0
  C  C174  1  0.60250000  0.43440000  0.92885000  1.0
  C  C175  1  0.14720000  0.04260000  0.24434000  1.0
  C  C176  1  0.22650000  0.54350000  0.21744000  1.0
  C  C177  1  0.38720000  0.48820000  0.58303000  1.0
  C  C178  1  0.13840000  0.51720000  0.50722000  1.0
  C  C179  1  0.22650000  0.04350000  0.28256000  1.0
  C  C180  1  0.37760000  0.07150000  0.92763000  1.0
  C  C181  1  0.37360000  0.97970000  0.75314000  1.0
  C  C182  1  0.74440000  0.44910000  0.88635000  1.0
  C  C183  1  0.85280000  0.45740000  0.74434000  1.0
  C  C184  1  0.49570000  0.57780000  0.07747000  1.0
  C  C185  1  0.62690000  0.62610000  0.61622000  1.0
  C  C186  1  0.15150000  0.94430000  0.96526000  1.0
  C  C187  1  0.90800000  0.19580000  0.68508000  1.0
  C  C188  1  0.37360000  0.47970000  0.74686000  1.0
  C  C189  1  0.38190000  0.29350000  0.35228000  1.0
  C  C190  1  0.37150000  0.62460000  0.61772000  1.0
  C  C191  1  0.38260000  0.86270000  0.04978000  1.0
  C  C192  1  0.61810000  0.20650000  0.85228000  1.0
  C  C193  1  0.16840000  0.05270000  0.18005000  1.0
  C  C194  1  0.83160000  0.94730000  0.81995000  1.0
  C  C195  1  0.65490000  0.94770000  0.62006000  1.0
  C  C196  1  0.85280000  0.95740000  0.75566000  1.0
  C  C197  1  0.22380000  0.81770000  0.37009000  1.0
  C  C198  1  0.99440000  0.80190000  0.31253000  1.0
  C  C199  1  0.62060000  0.98590000  0.18568000  1.0
  C  C200  1  0.37760000  0.57150000  0.57237000  1.0
  C  C201  1  0.60250000  0.93440000  0.57115000  1.0
  C  C202  1  0.63710000  0.42490000  0.98333000  1.0
  C  C203  1  0.22680000  0.79910000  0.26681000  1.0
  C  C204  1  0.38720000  0.98820000  0.91697000  1.0
  C  C205  1  0.38850000  0.96010000  0.86054000  1.0
  C  C206  1  0.27070000  0.31140000  0.18043000  1.0
  C  C207  1  0.77320000  0.70090000  0.76681000  1.0
  C  C208  1  0.77350000  0.95650000  0.71744000  1.0
  C  C209  1  0.27200000  0.32870000  0.07288000  1.0
  C  C210  1  0.76220000  0.90700000  0.45230000  1.0
  C  C211  1  0.13750000  0.29730000  0.23549000  1.0
  C  C212  1  0.34510000  0.55230000  0.12006000  1.0
  C  C213  1  0.85220000  0.33320000  0.36652000  1.0
  C  C214  1  0.62640000  0.52030000  0.25314000  1.0
  C  C215  1  0.23780000  0.59300000  0.95230000  1.0
  C  C216  1  0.13570000  0.31630000  0.13225000  1.0
  C  C217  1  0.82390000  0.63690000  0.37569000  1.0
  C  C218  1  0.86350000  0.91050000  0.04004000  1.0
  C  C219  1  0.62840000  0.40440000  0.32627000  1.0
  C  C220  1  0.13840000  0.01720000  0.99278000  1.0
  C  C221  1  0.50430000  0.92220000  0.57747000  1.0
  C  C222  1  0.22040000  0.56370000  0.06016000  1.0
  C  C223  1  0.17610000  0.36310000  0.62431000  1.0
  C  C224  1  0.27280000  0.57530000  0.01083000  1.0
  C  C225  1  0.61280000  0.51180000  0.41697000  1.0
  C  C226  1  0.37160000  0.09560000  0.82627000  1.0
  C  C227  1  0.16100000  0.01510000  0.87350000  1.0
  C  C228  1  0.85350000  0.91200000  0.09890000  1.0
  C  C229  1  0.39750000  0.06560000  0.42885000  1.0
  C  C230  1  0.15150000  0.44430000  0.53474000  1.0
  C  C231  1  0.49570000  0.07780000  0.42253000  1.0
  C  C232  1  0.74440000  0.94910000  0.61365000  1.0
  C  C233  1  0.14780000  0.66680000  0.63348000  1.0
  C  C234  1  0.14650000  0.58800000  0.59890000  1.0
  C  C235  1  0.10220000  0.57800000  0.41794000  1.0
  C  C236  1  0.62240000  0.42850000  0.42763000  1.0
  C  C237  1  0.38850000  0.46010000  0.63946000  1.0
  C  C238  1  0.77350000  0.45650000  0.78256000  1.0
  C  C239  1  0.36290000  0.07510000  0.48333000  1.0
  C  C240  1  0.62240000  0.92850000  0.07237000  1.0
  C  C241  1  0.62640000  0.02030000  0.24686000  1.0
  C  C242  1  0.72720000  0.42470000  0.98917000  1.0
  C  C243  1  0.35990000  0.71400000  0.60702000  1.0
  C  C244  1  0.77320000  0.20090000  0.73319000  1.0
  C  C245  1  0.37310000  0.87390000  0.11622000  1.0
  C  C246  1  0.72800000  0.67130000  0.92712000  1.0
  C  C247  1  0.62690000  0.12610000  0.88378000  1.0
  C  C248  1  0.38010000  0.94570000  0.01799000  1.0
  C  C249  1  0.16840000  0.55270000  0.31995000  1.0
  C  C250  1  0.82390000  0.13690000  0.12431000  1.0
  C  C251  1  0.83810000  0.55710000  0.40546000  1.0
  C  C252  1  0.89780000  0.92200000  0.91794000  1.0
  C  C253  1  0.72930000  0.18860000  0.68043000  1.0
  C  C254  1  0.37160000  0.59560000  0.67373000  1.0
  C  C255  1  0.14720000  0.54260000  0.25566000  1.0
  C  C256  1  0.85220000  0.83320000  0.13348000  1.0
  C  C257  1  0.50430000  0.42220000  0.92253000  1.0
  C  C258  1  0.38190000  0.79350000  0.14772000  1.0
  C  C259  1  0.22380000  0.31770000  0.12991000  1.0
  C  C260  1  0.86160000  0.48280000  0.49278000  1.0
  C  C261  1  0.64230000  0.70320000  0.71176000  1.0
  C  C262  1  0.63710000  0.92490000  0.51667000  1.0
  C  C263  1  0.09200000  0.30420000  0.18508000  1.0
  C  C264  1  0.37310000  0.37390000  0.38378000  1.0
  C  C265  1  0.39750000  0.56560000  0.07115000  1.0
  C  C266  1  0.64010000  0.78600000  0.10702000  1.0
  C  C267  1  0.62060000  0.48590000  0.31432000  1.0
  C  C268  1  0.90800000  0.69580000  0.81492000  1.0
  C  C269  1  0.85350000  0.41200000  0.40110000  1.0
  C  C270  1  0.61990000  0.05430000  0.98201000  1.0
  C  C271  1  0.22680000  0.29910000  0.23319000  1.0
  C  C272  1  0.14780000  0.16680000  0.86652000  1.0
  C  C273  1  0.83900000  0.98490000  0.12650000  1.0
  C  C274  1  0.27280000  0.07530000  0.48917000  1.0
  C  C275  1  0.86160000  0.98280000  0.00722000  1.0
  C  C276  1  0.37150000  0.12460000  0.88228000  1.0
  C  C277  1  0.65490000  0.44770000  0.87994000  1.0
  C  C278  1  0.08800000  0.55750000  0.35520000  1.0
  C  C279  1  0.13650000  0.08950000  0.95996000  1.0
  C  C280  1  0.61990000  0.55430000  0.51799000  1.0
  C  C281  1  0.38010000  0.44570000  0.48201000  1.0
  C  C282  1  0.77620000  0.68230000  0.87009000  1.0
  C  C283  1  0.62840000  0.90440000  0.17373000  1.0
  C  C284  1  0.35770000  0.79680000  0.21176000  1.0
  C  C285  1  0.09200000  0.80420000  0.31492000  1.0
  C  C286  1  0.22040000  0.06370000  0.43984000  1.0
  C  C287  1  0.38260000  0.36270000  0.45022000  1.0
  C  C288  1  0.76220000  0.40700000  0.04770000  1.0
  C  C289  1  0.10220000  0.07800000  0.08206000  1.0
  C  C290  1  0.86430000  0.68370000  0.86775000  1.0
  C  C291  1  0.83900000  0.48490000  0.37350000  1.0
  C  C292  1  0.72800000  0.17130000  0.57288000  1.0
  C  C293  1  0.84850000  0.55570000  0.46526000  1.0
  C  C294  1  0.35990000  0.21400000  0.89298000  1.0
  C  C295  1  0.86430000  0.18370000  0.63225000  1.0
  C  C296  1  0.27070000  0.81140000  0.31957000  1.0
  C  C297  1  0.13750000  0.79730000  0.26451000  1.0
  C  C298  1  0.25560000  0.05090000  0.38635000  1.0
  C  C299  1  0.64010000  0.28600000  0.39298000  1.0
  C  C300  1  0.72930000  0.68860000  0.81957000  1.0
  C  C301  1  0.13650000  0.58950000  0.54004000  1.0
  C  C302  1  0.61150000  0.03990000  0.13946000  1.0
  C  C303  1  0.61150000  0.53990000  0.36054000  1.0
  C  C304  1  0.61740000  0.63730000  0.54978000  1.0
  C  C305  1  0.83160000  0.44730000  0.68005000  1.0
  C  C306  1  0.14650000  0.08800000  0.90110000  1.0
  C  C307  1  0.86250000  0.70270000  0.76451000  1.0
  C  C308  1  0.13570000  0.81630000  0.36775000  1.0
  C  C309  1  0.27200000  0.82870000  0.42712000  1.0
  C  C310  1  0.35770000  0.29680000  0.28824000  1.0
  C  C311  1  0.34510000  0.05230000  0.37994000  1.0
  C  C312  1  0.62850000  0.87540000  0.11772000  1.0
  C  C313  1  0.91200000  0.44250000  0.64480000  1.0
  C  C314  1  0.91200000  0.94250000  0.85520000  1.0
  C  C315  1  0.86250000  0.20270000  0.73549000  1.0
  O  O316  1  0.21669000  0.35045000  0.79840000  1.0
  O  O317  1  0.65657000  0.47884000  0.21377000  1.0
  O  O318  1  0.76904000  0.66090000  0.97248000  1.0
  O  O319  1  0.04534000  0.22990000  0.73183000  1.0
  O  O320  1  0.27995000  0.40366000  0.90668000  1.0
  O  O321  1  0.73473000  0.20860000  0.78583000  1.0
  O  O322  1  0.19658000  0.53930000  0.15869000  1.0
  O  O323  1  0.34343000  0.52116000  0.78623000  1.0
  O  O324  1  0.35088000  0.82570000  0.42979000  1.0
  O  O325  1  0.45959000  0.90281000  0.53220000  1.0
  O  O326  1  0.34564000  0.73467000  0.55517000  1.0
  O  O327  1  0.04119000  0.17113000  0.64306000  1.0
  O  O328  1  0.16019000  0.66397000  0.68763000  1.0
  O  O329  1  0.23202000  0.68531000  0.80483000  1.0
  O  O330  1  0.60530000  0.09177000  0.25570000  1.0
  O  O331  1  0.82270000  0.14019000  0.17868000  1.0
  O  O332  1  0.65657000  0.97884000  0.28623000  1.0
  O  O333  1  0.27995000  0.90366000  0.59332000  1.0
  O  O334  1  0.23096000  0.83910000  0.47248000  1.0
  O  O335  1  0.04119000  0.67113000  0.85694000  1.0
  O  O336  1  0.17156000  0.62863000  0.95091000  1.0
  O  O337  1  0.95466000  0.27010000  0.23183000  1.0
  O  O338  1  0.04534000  0.72990000  0.76817000  1.0
  O  O339  1  0.36433000  0.76275000  0.65006000  1.0
  O  O340  1  0.39310000  0.42919000  0.54111000  1.0
  O  O341  1  0.36433000  0.26275000  0.84994000  1.0
  O  O342  1  0.83981000  0.33603000  0.31237000  1.0
  O  O343  1  0.16019000  0.16397000  0.81237000  1.0
  O  O344  1  0.45959000  0.40281000  0.96780000  1.0
  O  O345  1  0.95466000  0.77010000  0.26817000  1.0
  O  O346  1  0.18940000  0.30226000  0.59144000  1.0
  O  O347  1  0.17156000  0.12863000  0.54909000  1.0
  O  O348  1  0.26527000  0.29140000  0.28583000  1.0
  O  O349  1  0.39310000  0.92919000  0.95889000  1.0
  O  O350  1  0.76798000  0.81469000  0.30483000  1.0
  O  O351  1  0.54041000  0.09719000  0.46780000  1.0
  O  O352  1  0.86440000  0.26830000  0.39328000  1.0
  O  O353  1  0.83981000  0.83603000  0.18763000  1.0
  O  O354  1  0.64912000  0.67430000  0.92979000  1.0
  O  O355  1  0.52682000  0.06696000  0.37354000  1.0
  O  O356  1  0.64912000  0.17430000  0.57021000  1.0
  O  O357  1  0.17730000  0.85981000  0.82132000  1.0
  O  O358  1  0.34564000  0.23467000  0.94483000  1.0
  O  O359  1  0.47318000  0.93304000  0.62646000  1.0
  O  O360  1  0.13560000  0.73170000  0.60672000  1.0
  O  O361  1  0.82844000  0.37137000  0.04909000  1.0
  O  O362  1  0.34343000  0.02116000  0.71377000  1.0
  O  O363  1  0.35088000  0.32570000  0.07021000  1.0
  O  O364  1  0.17730000  0.35981000  0.67868000  1.0
  O  O365  1  0.21669000  0.85045000  0.70160000  1.0
  O  O366  1  0.82844000  0.87137000  0.45091000  1.0
  O  O367  1  0.13560000  0.23170000  0.89328000  1.0
  O  O368  1  0.78331000  0.14955000  0.29840000  1.0
  O  O369  1  0.87220000  0.48830000  0.55214000  1.0
  O  O370  1  0.78331000  0.64955000  0.20160000  1.0
  O  O371  1  0.12780000  0.01170000  0.05214000  1.0
  O  O372  1  0.63567000  0.73725000  0.15006000  1.0
  O  O373  1  0.23096000  0.33910000  0.02752000  1.0
  O  O374  1  0.47318000  0.43304000  0.87354000  1.0
  O  O375  1  0.95881000  0.32887000  0.14306000  1.0
  O  O376  1  0.60530000  0.59177000  0.24430000  1.0
  O  O377  1  0.81060000  0.19774000  0.09144000  1.0
  O  O378  1  0.81060000  0.69774000  0.40856000  1.0
  O  O379  1  0.86440000  0.76830000  0.10672000  1.0
  O  O380  1  0.27546000  0.07342000  0.59292000  1.0
  O  O381  1  0.60690000  0.57081000  0.45889000  1.0
  O  O382  1  0.18940000  0.80226000  0.90856000  1.0
  O  O383  1  0.19658000  0.03930000  0.34131000  1.0
  O  O384  1  0.63567000  0.23725000  0.34994000  1.0
  O  O385  1  0.72454000  0.42658000  0.09292000  1.0
  O  O386  1  0.76798000  0.31469000  0.19517000  1.0
  O  O387  1  0.73473000  0.70860000  0.71417000  1.0
  O  O388  1  0.60690000  0.07081000  0.04111000  1.0
  O  O389  1  0.76904000  0.16090000  0.52752000  1.0
  O  O390  1  0.82270000  0.64019000  0.32132000  1.0
  O  O391  1  0.12780000  0.51170000  0.44786000  1.0
  O  O392  1  0.39470000  0.90823000  0.74430000  1.0
  O  O393  1  0.72454000  0.92658000  0.40708000  1.0
  O  O394  1  0.26527000  0.79140000  0.21417000  1.0
  O  O395  1  0.52682000  0.56696000  0.12646000  1.0
  O  O396  1  0.54041000  0.59719000  0.03220000  1.0
  O  O397  1  0.65436000  0.76533000  0.05517000  1.0
  O  O398  1  0.80342000  0.46070000  0.84131000  1.0
  O  O399  1  0.87220000  0.98830000  0.94786000  1.0
  O  O400  1  0.95881000  0.82887000  0.35694000  1.0
  O  O401  1  0.80342000  0.96070000  0.65869000  1.0
  O  O402  1  0.65436000  0.26533000  0.44483000  1.0
  O  O403  1  0.39470000  0.40823000  0.75570000  1.0
  O  O404  1  0.72005000  0.09634000  0.40668000  1.0
  O  O405  1  0.23202000  0.18531000  0.69517000  1.0
  O  O406  1  0.27546000  0.57342000  0.90708000  1.0
  O  O407  1  0.72005000  0.59634000  0.09332000  1.0
