# generated using pymatgen
data_CdAg2H10(C7N3)2
_symmetry_space_group_name_H-M   'P 1'
_cell_length_a   11.08880000
_cell_length_b   11.08880000
_cell_length_c   11.08880000
_cell_angle_alpha   107.55700000
_cell_angle_beta   109.11200000
_cell_angle_gamma   111.77300000
_symmetry_Int_Tables_number   1
_chemical_formula_structural   CdAg2H10(C7N3)2
_chemical_formula_sum   'Cd2 Ag4 H20 C28 N12'
_cell_volume   1048.15754570
_cell_formula_units_Z   2
loop_
 _symmetry_equiv_pos_site_id
 _symmetry_equiv_pos_as_xyz
  1  'x, y, z'
loop_
 _atom_site_type_symbol
 _atom_site_label
 _atom_site_symmetry_multiplicity
 _atom_site_fract_x
 _atom_site_fract_y
 _atom_site_fract_z
 _atom_site_occupancy
  Cd  Cd0  1  0.25000000  0.12772000  0.87772000  1.0
  Cd  Cd1  1  0.75000000  0.37228000  0.62228000  1.0
  Ag  Ag2  1  0.28025000  0.64157000  0.88548000  1.0
  Ag  Ag3  1  0.21975000  0.10523000  0.36132000  1.0
  Ag  Ag4  1  0.25609000  0.39477000  0.61452000  1.0
  Ag  Ag5  1  0.24391000  0.85843000  0.13868000  1.0
  H  H6  1  0.97532000  0.10899000  0.63288000  1.0
  H  H7  1  0.69264000  0.95210000  0.48760000  1.0
  H  H8  1  0.55566000  0.75069000  0.54429000  1.0
  H  H9  1  0.71129000  0.71705000  0.74590000  1.0
  H  H10  1  0.99395000  0.87237000  0.86888000  1.0
  H  H11  1  0.52468000  0.15756000  0.13366000  1.0
  H  H12  1  0.80736000  0.29496000  0.25946000  1.0
  H  H13  1  0.94434000  0.48863000  0.19503000  1.0
  H  H14  1  0.78871000  0.53461000  0.00575000  1.0
  H  H15  1  0.50605000  0.37492000  0.87842000  1.0
  H  H16  1  0.97611000  0.34244000  0.86712000  1.0
  H  H17  1  0.96451000  0.20504000  0.01240000  1.0
  H  H18  1  0.70640000  0.01137000  0.95571000  1.0
  H  H19  1  0.47115000  0.96539000  0.75410000  1.0
  H  H20  1  0.50350000  0.12508000  0.63112000  1.0
  H  H21  1  0.52389000  0.39101000  0.36634000  1.0
  H  H22  1  0.53549000  0.54790000  0.24054000  1.0
  H  H23  1  0.79360000  0.74931000  0.30497000  1.0
  H  H24  1  0.02885000  0.78295000  0.49425000  1.0
  H  H25  1  0.99650000  0.62763000  0.62158000  1.0
  C  C26  1  0.28130000  0.82020000  0.85970000  1.0
  C  C27  1  0.27920000  0.46840000  0.92200000  1.0
  C  C28  1  0.91260000  0.01740000  0.65420000  1.0
  C  C29  1  0.75720000  0.93220000  0.57540000  1.0
  C  C30  1  0.68300000  0.82200000  0.60700000  1.0
  C  C31  1  0.76880000  0.80280000  0.71600000  1.0
  C  C32  1  0.92070000  0.88890000  0.78360000  1.0
  C  C33  1  0.21870000  0.07840000  0.53890000  1.0
  C  C34  1  0.22080000  0.14280000  0.18920000  1.0
  C  C35  1  0.58740000  0.24160000  0.10480000  1.0
  C  C36  1  0.74280000  0.31820000  0.17500000  1.0
  C  C37  1  0.81700000  0.42400000  0.13900000  1.0
  C  C38  1  0.73120000  0.44720000  0.03400000  1.0
  C  C39  1  0.57930000  0.36290000  0.96820000  1.0
  C  C40  1  0.46050000  0.42160000  0.64030000  1.0
  C  C41  1  0.04640000  0.35720000  0.57800000  1.0
  C  C42  1  0.86320000  0.25840000  0.84580000  1.0
  C  C43  1  0.85680000  0.18180000  0.92460000  1.0
  C  C44  1  0.71500000  0.07600000  0.89300000  1.0
  C  C45  1  0.58680000  0.05280000  0.78400000  1.0
  C  C46  1  0.60530000  0.13710000  0.71640000  1.0
  C  C47  1  0.03950000  0.67980000  0.96110000  1.0
  C  C48  1  0.45360000  0.03160000  0.31080000  1.0
  C  C49  1  0.63680000  0.48260000  0.39520000  1.0
  C  C50  1  0.64320000  0.56780000  0.32500000  1.0
  C  C51  1  0.78500000  0.67800000  0.36100000  1.0
  C  C52  1  0.91320000  0.69720000  0.46600000  1.0
  C  C53  1  0.89470000  0.61110000  0.53180000  1.0
  N  N54  1  0.26870000  0.91690000  0.85220000  1.0
  N  N55  1  0.26720000  0.36340000  0.92260000  1.0
  N  N56  1  0.99280000  0.99620000  0.75540000  1.0
  N  N57  1  0.23130000  0.08350000  0.64820000  1.0
  N  N58  1  0.23280000  0.15540000  0.09620000  1.0
  N  N59  1  0.50720000  0.26260000  0.00340000  1.0
  N  N60  1  0.56470000  0.41650000  0.64780000  1.0
  N  N61  1  0.94080000  0.34460000  0.57740000  1.0
  N  N62  1  0.74080000  0.23740000  0.74460000  1.0
  N  N63  1  0.93530000  0.58310000  0.85180000  1.0
  N  N64  1  0.55920000  0.13660000  0.40380000  1.0
  N  N65  1  0.75920000  0.50380000  0.49660000  1.0
