# generated using pymatgen
data_Cd2H11C24(N2O7)3
_symmetry_space_group_name_H-M   'P 1'
_cell_length_a   12.17700000
_cell_length_b   13.17500000
_cell_length_c   15.81400000
_cell_angle_alpha   66.02800000
_cell_angle_beta   87.24900000
_cell_angle_gamma   89.98600000
_symmetry_Int_Tables_number   1
_chemical_formula_structural   Cd2H11C24(N2O7)3
_chemical_formula_sum   'Cd4 H22 C48 N12 O42'
_cell_volume   2315.04687600
_cell_formula_units_Z   2
loop_
 _symmetry_equiv_pos_site_id
 _symmetry_equiv_pos_as_xyz
  1  'x, y, z'
loop_
 _atom_site_type_symbol
 _atom_site_label
 _atom_site_symmetry_multiplicity
 _atom_site_fract_x
 _atom_site_fract_y
 _atom_site_fract_z
 _atom_site_occupancy
  Cd  Cd0  1  0.52000000  0.31511000  0.46936000  1.0
  Cd  Cd1  1  0.30249000  0.07061000  0.60559000  1.0
  Cd  Cd2  1  0.02208000  0.14372000  0.52316000  1.0
  Cd  Cd3  1  0.73680000  0.12133000  0.45528000  1.0
  H  H4  1  0.23000000  0.46560000  0.36830000  1.0
  H  H5  1  0.31660000  0.47370000  0.23160000  1.0
  H  H6  1  0.22850000  0.37670000  0.26800000  1.0
  H  H7  1  0.35350000  0.35050000  0.28210000  1.0
  H  H8  1  0.18350000  0.04210000  0.86020000  1.0
  H  H9  1  0.93060000  0.23720000  0.77010000  1.0
  H  H10  1  0.10050000  0.23410000  0.21150000  1.0
  H  H11  1  0.85020000  0.01050000  0.27380000  1.0
  H  H12  1  0.91900000  0.91570000  0.81330000  1.0
  H  H13  1  0.67530000  0.80350000  0.71180000  1.0
  H  H14  1  0.57030000  0.51820000  0.20090000  1.0
  H  H15  1  0.82940000  0.36040000  0.15370000  1.0
  H  H16  1  0.00840000  0.90220000  0.50090000  1.0
  H  H17  1  0.11430000  0.70330000  0.74540000  1.0
  H  H18  1  0.98590000  0.38070000  0.49230000  1.0
  H  H19  1  0.70030000  0.37280000  0.63350000  1.0
  H  H20  1  0.50670000  0.95540000  0.39680000  1.0
  H  H21  1  0.61190000  0.80440000  0.48570000  1.0
  H  H22  1  0.50650000  0.81340000  0.54290000  1.0
  H  H23  1  0.62110000  0.85400000  0.56000000  1.0
  H  H24  1  0.40530000  0.52480000  0.37570000  1.0
  H  H25  1  0.68250000  0.99940000  0.34250000  1.0
  C  C26  1  0.25650000  0.30140000  0.44720000  1.0
  C  C27  1  0.28720000  0.41230000  0.37070000  1.0
  C  C28  1  0.29740000  0.40240000  0.28000000  1.0
  C  C29  1  0.09300000  0.15210000  0.70510000  1.0
  C  C30  1  0.06170000  0.13910000  0.80120000  1.0
  C  C31  1  0.12180000  0.07770000  0.87080000  1.0
  C  C32  1  0.09030000  0.06690000  0.96310000  1.0
  C  C33  1  0.01310000  0.12680000  0.98250000  1.0
  C  C34  1  0.95030000  0.19410000  0.90560000  1.0
  C  C35  1  0.97450000  0.19610000  0.81840000  1.0
  C  C36  1  0.99530000  0.13010000  0.07460000  1.0
  C  C37  1  0.06420000  0.19530000  0.10600000  1.0
  C  C38  1  0.05360000  0.19130000  0.19380000  1.0
  C  C39  1  0.97390000  0.12450000  0.25620000  1.0
  C  C40  1  0.90300000  0.05780000  0.23180000  1.0
  C  C41  1  0.91640000  0.06680000  0.14100000  1.0
  C  C42  1  0.96880000  0.12090000  0.35290000  1.0
  C  C43  1  0.82660000  0.96600000  0.65040000  1.0
  C  C44  1  0.80050000  0.86930000  0.74630000  1.0
  C  C45  1  0.86250000  0.86430000  0.82190000  1.0
  C  C46  1  0.83760000  0.78450000  0.90520000  1.0
  C  C47  1  0.75930000  0.69890000  0.92330000  1.0
  C  C48  1  0.70260000  0.70420000  0.84900000  1.0
  C  C49  1  0.72030000  0.79590000  0.75980000  1.0
  C  C50  1  0.74050000  0.60060000  0.01570000  1.0
  C  C51  1  0.65260000  0.60520000  0.07410000  1.0
  C  C52  1  0.63010000  0.51630000  0.16270000  1.0
  C  C53  1  0.69990000  0.42770000  0.18970000  1.0
  C  C54  1  0.78430000  0.42180000  0.13430000  1.0
  C  C55  1  0.80370000  0.50680000  0.04920000  1.0
  C  C56  1  0.67340000  0.33210000  0.28600000  1.0
  C  C57  1  0.14970000  0.91200000  0.62170000  1.0
  C  C58  1  0.07500000  0.81920000  0.62130000  1.0
  C  C59  1  0.01280000  0.83280000  0.54960000  1.0
  C  C60  1  0.95460000  0.74170000  0.54900000  1.0
  C  C61  1  0.95830000  0.63540000  0.61890000  1.0
  C  C62  1  0.02200000  0.62720000  0.69140000  1.0
  C  C63  1  0.07510000  0.71340000  0.69360000  1.0
  C  C64  1  0.91640000  0.53910000  0.60440000  1.0
  C  C65  1  0.98240000  0.49790000  0.55100000  1.0
  C  C66  1  0.94060000  0.41030000  0.52520000  1.0
  C  C67  1  0.83180000  0.37210000  0.55060000  1.0
  C  C68  1  0.76840000  0.40660000  0.60920000  1.0
  C  C69  1  0.80500000  0.48780000  0.63040000  1.0
  C  C70  1  0.79300000  0.28080000  0.52130000  1.0
  C  C71  1  0.49650000  0.03300000  0.48890000  1.0
  C  C72  1  0.55620000  0.96310000  0.44100000  1.0
  C  C73  1  0.57570000  0.84820000  0.51410000  1.0
  N  N74  1  0.03520000  0.51750000  0.76410000  1.0
  N  N75  1  0.15870000  0.98890000  0.03860000  1.0
  N  N76  1  0.86260000  0.25880000  0.92060000  1.0
  N  N77  1  0.15230000  0.26870000  0.04280000  1.0
  N  N78  1  0.84160000  0.99330000  0.11770000  1.0
  N  N79  1  0.89450000  0.79250000  0.98390000  1.0
  N  N80  1  0.57520000  0.69570000  0.05350000  1.0
  N  N81  1  0.89930000  0.50390000  0.99250000  1.0
  N  N82  1  0.61120000  0.62550000  0.85490000  1.0
  N  N83  1  0.73660000  0.52380000  0.69180000  1.0
  N  N84  1  0.09140000  0.53620000  0.51820000  1.0
  N  N85  1  0.89100000  0.75820000  0.46870000  1.0
  O  O86  1  0.33860000  0.24160000  0.48950000  1.0
  O  O87  1  0.15830000  0.27980000  0.46570000  1.0
  O  O88  1  0.39070000  0.44970000  0.39210000  1.0
  O  O89  1  0.18810000  0.12040000  0.69510000  1.0
  O  O90  1  0.02360000  0.18700000  0.64640000  1.0
  O  O91  1  0.25200000  0.97190000  0.01750000  1.0
  O  O92  1  0.11300000  0.94060000  0.11190000  1.0
  O  O93  1  0.78640000  0.28010000  0.86470000  1.0
  O  O94  1  0.86130000  0.29060000  0.98190000  1.0
  O  O95  1  0.17120000  0.26590000  0.97160000  1.0
  O  O96  1  0.19220000  0.33790000  0.06490000  1.0
  O  O97  1  0.79840000  0.03550000  0.04270000  1.0
  O  O98  1  0.82240000  0.90040000  0.17640000  1.0
  O  O99  1  0.89500000  0.05450000  0.41060000  1.0
  O  O100  1  0.03830000  0.17730000  0.37080000  1.0
  O  O101  1  0.91990000  0.00330000  0.63380000  1.0
  O  O102  1  0.74430000  0.98710000  0.59740000  1.0
  O  O103  1  0.93140000  0.87650000  0.97530000  1.0
  O  O104  1  0.92400000  0.70430000  0.04360000  1.0
  O  O105  1  0.61860000  0.53080000  0.91340000  1.0
  O  O106  1  0.54050000  0.65830000  0.80210000  1.0
  O  O107  1  0.61830000  0.79170000  0.01360000  1.0
  O  O108  1  0.48120000  0.68220000  0.06540000  1.0
  O  O109  1  0.90410000  0.55130000  0.90880000  1.0
  O  O110  1  0.97310000  0.44920000  0.03250000  1.0
  O  O111  1  0.74600000  0.26210000  0.31370000  1.0
  O  O112  1  0.58440000  0.33920000  0.32980000  1.0
  O  O113  1  0.21940000  0.89110000  0.68090000  1.0
  O  O114  1  0.14710000  0.00620000  0.55280000  1.0
  O  O115  1  0.11870000  0.50430000  0.81320000  1.0
  O  O116  1  0.96580000  0.44450000  0.77900000  1.0
  O  O117  1  0.94140000  0.81960000  0.39150000  1.0
  O  O118  1  0.80380000  0.71230000  0.48010000  1.0
  O  O119  1  0.76020000  0.60560000  0.70280000  1.0
  O  O120  1  0.64970000  0.47660000  0.71840000  1.0
  O  O121  1  0.15370000  0.51910000  0.58170000  1.0
  O  O122  1  0.11630000  0.57880000  0.44190000  1.0
  O  O123  1  0.69190000  0.25820000  0.53320000  1.0
  O  O124  1  0.86130000  0.24140000  0.48410000  1.0
  O  O125  1  0.54780000  0.11580000  0.48950000  1.0
  O  O126  1  0.39920000  0.00080000  0.52010000  1.0
  O  O127  1  0.65350000  0.01050000  0.39350000  1.0
