# generated using pymatgen
data_AlH5C8O5
_symmetry_space_group_name_H-M   'P 1'
_cell_length_a   17.01900000
_cell_length_b   6.58440000
_cell_length_c   12.26200000
_cell_angle_alpha   90.00000000
_cell_angle_beta   90.00000000
_cell_angle_gamma   90.00000000
_symmetry_Int_Tables_number   1
_chemical_formula_structural   AlH5C8O5
_chemical_formula_sum   'Al4 H20 C32 O20'
_cell_volume   1374.07853794
_cell_formula_units_Z   4
loop_
 _symmetry_equiv_pos_site_id
 _symmetry_equiv_pos_as_xyz
  1  'x, y, z'
loop_
 _atom_site_type_symbol
 _atom_site_label
 _atom_site_symmetry_multiplicity
 _atom_site_fract_x
 _atom_site_fract_y
 _atom_site_fract_z
 _atom_site_occupancy
  Al  Al0  1  0.00000000  0.00000000  0.00000000  1.0
  Al  Al1  1  0.50000000  0.00000000  0.50000000  1.0
  Al  Al2  1  0.00000000  0.50000000  0.00000000  1.0
  Al  Al3  1  0.50000000  0.50000000  0.50000000  1.0
  H  H4  1  0.29660000  0.05400000  0.68000000  1.0
  H  H5  1  0.18230000  0.05410000  0.78250000  1.0
  H  H6  1  0.20340000  0.94600000  0.18000000  1.0
  H  H7  1  0.31770000  0.94590000  0.28250000  1.0
  H  H8  1  0.70340000  0.55400000  0.32000000  1.0
  H  H9  1  0.81770000  0.55410000  0.21750000  1.0
  H  H10  1  0.79660000  0.44600000  0.82000000  1.0
  H  H11  1  0.68230000  0.44590000  0.71750000  1.0
  H  H12  1  0.70340000  0.94600000  0.32000000  1.0
  H  H13  1  0.81770000  0.94590000  0.21750000  1.0
  H  H14  1  0.79660000  0.05400000  0.82000000  1.0
  H  H15  1  0.68230000  0.05410000  0.71750000  1.0
  H  H16  1  0.29660000  0.44600000  0.68000000  1.0
  H  H17  1  0.18230000  0.44590000  0.78250000  1.0
  H  H18  1  0.20340000  0.55400000  0.18000000  1.0
  H  H19  1  0.31770000  0.55410000  0.28250000  1.0
  H  H20  1  0.01700000  0.75000000  0.12840000  1.0
  H  H21  1  0.48300000  0.25000000  0.62840000  1.0
  H  H22  1  0.98300000  0.25000000  0.87160000  1.0
  H  H23  1  0.51700000  0.75000000  0.37160000  1.0
  C  C24  1  0.27391000  0.93170000  0.70130000  1.0
  C  C25  1  0.20527000  0.93180000  0.76200000  1.0
  C  C26  1  0.22609000  0.06830000  0.20130000  1.0
  C  C27  1  0.29473000  0.06820000  0.26200000  1.0
  C  C28  1  0.72609000  0.43170000  0.29870000  1.0
  C  C29  1  0.79473000  0.43180000  0.23800000  1.0
  C  C30  1  0.77391000  0.56830000  0.79870000  1.0
  C  C31  1  0.70527000  0.56820000  0.73800000  1.0
  C  C32  1  0.72609000  0.06830000  0.29870000  1.0
  C  C33  1  0.79473000  0.06820000  0.23800000  1.0
  C  C34  1  0.77391000  0.93170000  0.79870000  1.0
  C  C35  1  0.70527000  0.93180000  0.73800000  1.0
  C  C36  1  0.27391000  0.56830000  0.70130000  1.0
  C  C37  1  0.20527000  0.56820000  0.76200000  1.0
  C  C38  1  0.22609000  0.43170000  0.20130000  1.0
  C  C39  1  0.29473000  0.43180000  0.26200000  1.0
  C  C40  1  0.38409000  0.75000000  0.60990000  1.0
  C  C41  1  0.30865000  0.75000000  0.67230000  1.0
  C  C42  1  0.09934000  0.75000000  0.86290000  1.0
  C  C43  1  0.17087000  0.75000000  0.79230000  1.0
  C  C44  1  0.11591000  0.25000000  0.10990000  1.0
  C  C45  1  0.19135000  0.25000000  0.17230000  1.0
  C  C46  1  0.40066000  0.25000000  0.36290000  1.0
  C  C47  1  0.32913000  0.25000000  0.29230000  1.0
  C  C48  1  0.61591000  0.25000000  0.39010000  1.0
  C  C49  1  0.69135000  0.25000000  0.32770000  1.0
  C  C50  1  0.90066000  0.25000000  0.13710000  1.0
  C  C51  1  0.82913000  0.25000000  0.20770000  1.0
  C  C52  1  0.88409000  0.75000000  0.89010000  1.0
  C  C53  1  0.80865000  0.75000000  0.82770000  1.0
  C  C54  1  0.59934000  0.75000000  0.63710000  1.0
  C  C55  1  0.67087000  0.75000000  0.70770000  1.0
  O  O56  1  0.07230000  0.92010000  0.89083000  1.0
  O  O57  1  0.41325000  0.92020000  0.58606000  1.0
  O  O58  1  0.42770000  0.07990000  0.39083000  1.0
  O  O59  1  0.08675000  0.07980000  0.08606000  1.0
  O  O60  1  0.92770000  0.42010000  0.10917000  1.0
  O  O61  1  0.58675000  0.42020000  0.41394000  1.0
  O  O62  1  0.57230000  0.57990000  0.60917000  1.0
  O  O63  1  0.91325000  0.57980000  0.91394000  1.0
  O  O64  1  0.92770000  0.07990000  0.10917000  1.0
  O  O65  1  0.58675000  0.07980000  0.41394000  1.0
  O  O66  1  0.57230000  0.92010000  0.60917000  1.0
  O  O67  1  0.91325000  0.92020000  0.91394000  1.0
  O  O68  1  0.07230000  0.57990000  0.89083000  1.0
  O  O69  1  0.41325000  0.57980000  0.58606000  1.0
  O  O70  1  0.42770000  0.42010000  0.39083000  1.0
  O  O71  1  0.08675000  0.42020000  0.08606000  1.0
  O  O72  1  0.00511000  0.75000000  0.06418000  1.0
  O  O73  1  0.49489000  0.25000000  0.56418000  1.0
  O  O74  1  0.99489000  0.25000000  0.93582000  1.0
  O  O75  1  0.50511000  0.75000000  0.43582000  1.0
