# generated using pymatgen
data_AlH5C8O5
_symmetry_space_group_name_H-M   'P 1'
_cell_length_a   13.21700000
_cell_length_b   22.04320000
_cell_length_c   22.04320000
_cell_angle_alpha   71.07970000
_cell_angle_beta   72.55470000
_cell_angle_gamma   72.55450000
_symmetry_Int_Tables_number   1
_chemical_formula_structural   AlH5C8O5
_chemical_formula_sum   'Al16 H80 C128 O80'
_cell_volume   5647.82936667
_cell_formula_units_Z   16
loop_
 _symmetry_equiv_pos_site_id
 _symmetry_equiv_pos_as_xyz
  1  'x, y, z'
loop_
 _atom_site_type_symbol
 _atom_site_label
 _atom_site_symmetry_multiplicity
 _atom_site_fract_x
 _atom_site_fract_y
 _atom_site_fract_z
 _atom_site_occupancy
  Al  Al0  1  0.25322000  0.25145000  0.00027000  1.0
  Al  Al1  1  0.00378000  0.25094000  0.00003000  1.0
  Al  Al2  1  0.75322000  0.25145000  0.00027000  1.0
  Al  Al3  1  0.50378000  0.25094000  0.00003000  1.0
  Al  Al4  1  0.25322000  0.75145000  0.00027000  1.0
  Al  Al5  1  0.00378000  0.75094000  0.00003000  1.0
  Al  Al6  1  0.75322000  0.75145000  0.00027000  1.0
  Al  Al7  1  0.50378000  0.75094000  0.00003000  1.0
  Al  Al8  1  0.25322000  0.25145000  0.50027000  1.0
  Al  Al9  1  0.00378000  0.25094000  0.50003000  1.0
  Al  Al10  1  0.75322000  0.25145000  0.50027000  1.0
  Al  Al11  1  0.50378000  0.25094000  0.50003000  1.0
  Al  Al12  1  0.25322000  0.75145000  0.50027000  1.0
  Al  Al13  1  0.00378000  0.75094000  0.50003000  1.0
  Al  Al14  1  0.75322000  0.75145000  0.50027000  1.0
  Al  Al15  1  0.50378000  0.75094000  0.50003000  1.0
  H  H16  1  0.13389000  0.05786000  0.00544000  1.0
  H  H17  1  0.12093000  0.24605000  0.19334000  1.0
  H  H18  1  0.05970000  0.25368000  0.30700000  1.0
  H  H19  1  0.19545000  0.44514000  0.49480000  1.0
  H  H20  1  0.36993000  0.44501000  0.49508000  1.0
  H  H21  1  0.38539000  0.25409000  0.30715000  1.0
  H  H22  1  0.44627000  0.24578000  0.19336000  1.0
  H  H23  1  0.30834000  0.05820000  0.00512000  1.0
  H  H24  1  0.37660000  0.31503000  0.44061000  1.0
  H  H25  1  0.12403000  0.19444000  0.06579000  1.0
  H  H26  1  0.63389000  0.05786000  0.00544000  1.0
  H  H27  1  0.62093000  0.24605000  0.19334000  1.0
  H  H28  1  0.55970000  0.25368000  0.30700000  1.0
  H  H29  1  0.69545000  0.44514000  0.49480000  1.0
  H  H30  1  0.86993000  0.44501000  0.49508000  1.0
  H  H31  1  0.88539000  0.25409000  0.30715000  1.0
  H  H32  1  0.94627000  0.24578000  0.19336000  1.0
  H  H33  1  0.80834000  0.05820000  0.00512000  1.0
  H  H34  1  0.87660000  0.31503000  0.44061000  1.0
  H  H35  1  0.62403000  0.19444000  0.06579000  1.0
  H  H36  1  0.13389000  0.55786000  0.00544000  1.0
  H  H37  1  0.12093000  0.74605000  0.19334000  1.0
  H  H38  1  0.05970000  0.75368000  0.30700000  1.0
  H  H39  1  0.19545000  0.94514000  0.49480000  1.0
  H  H40  1  0.36993000  0.94501000  0.49508000  1.0
  H  H41  1  0.38539000  0.75409000  0.30715000  1.0
  H  H42  1  0.44627000  0.74578000  0.19336000  1.0
  H  H43  1  0.30834000  0.55820000  0.00512000  1.0
  H  H44  1  0.37660000  0.81503000  0.44061000  1.0
  H  H45  1  0.12403000  0.69444000  0.06579000  1.0
  H  H46  1  0.63389000  0.55786000  0.00544000  1.0
  H  H47  1  0.62093000  0.74605000  0.19334000  1.0
  H  H48  1  0.55970000  0.75368000  0.30700000  1.0
  H  H49  1  0.69545000  0.94514000  0.49480000  1.0
  H  H50  1  0.86993000  0.94501000  0.49508000  1.0
  H  H51  1  0.88539000  0.75409000  0.30715000  1.0
  H  H52  1  0.94627000  0.74578000  0.19336000  1.0
  H  H53  1  0.80834000  0.55820000  0.00512000  1.0
  H  H54  1  0.87660000  0.81503000  0.44061000  1.0
  H  H55  1  0.62403000  0.69444000  0.06579000  1.0
  H  H56  1  0.13389000  0.05786000  0.50544000  1.0
  H  H57  1  0.12093000  0.24605000  0.69334000  1.0
  H  H58  1  0.05970000  0.25368000  0.80700000  1.0
  H  H59  1  0.19545000  0.44514000  0.99480000  1.0
  H  H60  1  0.36993000  0.44501000  0.99508000  1.0
  H  H61  1  0.38539000  0.25409000  0.80715000  1.0
  H  H62  1  0.44627000  0.24578000  0.69336000  1.0
  H  H63  1  0.30834000  0.05820000  0.50512000  1.0
  H  H64  1  0.37660000  0.31503000  0.94061000  1.0
  H  H65  1  0.12403000  0.19444000  0.56579000  1.0
  H  H66  1  0.63389000  0.05786000  0.50544000  1.0
  H  H67  1  0.62093000  0.24605000  0.69334000  1.0
  H  H68  1  0.55970000  0.25368000  0.80700000  1.0
  H  H69  1  0.69545000  0.44514000  0.99480000  1.0
  H  H70  1  0.86993000  0.44501000  0.99508000  1.0
  H  H71  1  0.88539000  0.25409000  0.80715000  1.0
  H  H72  1  0.94627000  0.24578000  0.69336000  1.0
  H  H73  1  0.80834000  0.05820000  0.50512000  1.0
  H  H74  1  0.87660000  0.31503000  0.94061000  1.0
  H  H75  1  0.62403000  0.19444000  0.56579000  1.0
  H  H76  1  0.13389000  0.55786000  0.50544000  1.0
  H  H77  1  0.12093000  0.74605000  0.69334000  1.0
  H  H78  1  0.05970000  0.75368000  0.80700000  1.0
  H  H79  1  0.19545000  0.94514000  0.99480000  1.0
  H  H80  1  0.36993000  0.94501000  0.99508000  1.0
  H  H81  1  0.38539000  0.75409000  0.80715000  1.0
  H  H82  1  0.44627000  0.74578000  0.69336000  1.0
  H  H83  1  0.30834000  0.55820000  0.50512000  1.0
  H  H84  1  0.37660000  0.81503000  0.94061000  1.0
  H  H85  1  0.12403000  0.69444000  0.56579000  1.0
  H  H86  1  0.63389000  0.55786000  0.50544000  1.0
  H  H87  1  0.62093000  0.74605000  0.69334000  1.0
  H  H88  1  0.55970000  0.75368000  0.80700000  1.0
  H  H89  1  0.69545000  0.94514000  0.99480000  1.0
  H  H90  1  0.86993000  0.94501000  0.99508000  1.0
  H  H91  1  0.88539000  0.75409000  0.80715000  1.0
  H  H92  1  0.94627000  0.74578000  0.69336000  1.0
  H  H93  1  0.80834000  0.55820000  0.50512000  1.0
  H  H94  1  0.87660000  0.81503000  0.94061000  1.0
  H  H95  1  0.62403000  0.69444000  0.56579000  1.0
  C  C96  1  0.07535000  0.03414000  0.00276000  1.0
  C  C97  1  0.17982000  0.24703000  0.21771000  1.0
  C  C98  1  0.14468000  0.25136000  0.28333000  1.0
  C  C99  1  0.11105000  0.46926000  0.49625000  1.0
  C  C100  1  0.42895000  0.46914000  0.49632000  1.0
  C  C101  1  0.32696000  0.25148000  0.28334000  1.0
  C  C102  1  0.36201000  0.24691000  0.21777000  1.0
  C  C103  1  0.39317000  0.03422000  0.00264000  1.0
  C  C104  1  0.46594000  0.06789000  0.00578000  1.0
  C  C105  1  0.43017000  0.13877000  0.00768000  1.0
  C  C106  1  0.28901000  0.24509000  0.18362000  1.0
  C  C107  1  0.32477000  0.24490000  0.11226000  1.0
  C  C108  1  0.21784000  0.25334000  0.31743000  1.0
  C  C109  1  0.18174000  0.25495000  0.38843000  1.0
  C  C110  1  0.03872000  0.43535000  0.49311000  1.0
  C  C111  1  0.07594000  0.36404000  0.49194000  1.0
  C  C112  1  0.57535000  0.03414000  0.00276000  1.0
  C  C113  1  0.67982000  0.24703000  0.21771000  1.0
  C  C114  1  0.64468000  0.25136000  0.28333000  1.0
  C  C115  1  0.61105000  0.46926000  0.49625000  1.0
  C  C116  1  0.92895000  0.46914000  0.49632000  1.0
  C  C117  1  0.82696000  0.25148000  0.28334000  1.0
  C  C118  1  0.86201000  0.24691000  0.21777000  1.0
  C  C119  1  0.89317000  0.03422000  0.00264000  1.0
  C  C120  1  0.96594000  0.06789000  0.00578000  1.0
  C  C121  1  0.93017000  0.13877000  0.00768000  1.0
  C  C122  1  0.78901000  0.24509000  0.18362000  1.0
  C  C123  1  0.82477000  0.24490000  0.11226000  1.0
  C  C124  1  0.71784000  0.25334000  0.31743000  1.0
  C  C125  1  0.68174000  0.25495000  0.38843000  1.0
  C  C126  1  0.53872000  0.43535000  0.49311000  1.0
  C  C127  1  0.57594000  0.36404000  0.49194000  1.0
  C  C128  1  0.07535000  0.53414000  0.00276000  1.0
  C  C129  1  0.17982000  0.74703000  0.21771000  1.0
  C  C130  1  0.14468000  0.75136000  0.28333000  1.0
  C  C131  1  0.11105000  0.96926000  0.49625000  1.0
  C  C132  1  0.42895000  0.96914000  0.49632000  1.0
  C  C133  1  0.32696000  0.75148000  0.28334000  1.0
  C  C134  1  0.36201000  0.74691000  0.21777000  1.0
  C  C135  1  0.39317000  0.53422000  0.00264000  1.0
  C  C136  1  0.46594000  0.56789000  0.00578000  1.0
  C  C137  1  0.43017000  0.63877000  0.00768000  1.0
  C  C138  1  0.28901000  0.74509000  0.18362000  1.0
  C  C139  1  0.32477000  0.74490000  0.11226000  1.0
  C  C140  1  0.21784000  0.75334000  0.31743000  1.0
  C  C141  1  0.18174000  0.75495000  0.38843000  1.0
  C  C142  1  0.03872000  0.93535000  0.49311000  1.0
  C  C143  1  0.07594000  0.86404000  0.49194000  1.0
  C  C144  1  0.57535000  0.53414000  0.00276000  1.0
  C  C145  1  0.67982000  0.74703000  0.21771000  1.0
  C  C146  1  0.64468000  0.75136000  0.28333000  1.0
  C  C147  1  0.61105000  0.96926000  0.49625000  1.0
  C  C148  1  0.92895000  0.96914000  0.49632000  1.0
  C  C149  1  0.82696000  0.75148000  0.28334000  1.0
  C  C150  1  0.86201000  0.74691000  0.21777000  1.0
  C  C151  1  0.89317000  0.53422000  0.00264000  1.0
  C  C152  1  0.96594000  0.56789000  0.00578000  1.0
  C  C153  1  0.93017000  0.63877000  0.00768000  1.0
  C  C154  1  0.78901000  0.74509000  0.18362000  1.0
  C  C155  1  0.82477000  0.74490000  0.11226000  1.0
  C  C156  1  0.71784000  0.75334000  0.31743000  1.0
  C  C157  1  0.68174000  0.75495000  0.38843000  1.0
  C  C158  1  0.53872000  0.93535000  0.49311000  1.0
  C  C159  1  0.57594000  0.86404000  0.49194000  1.0
  C  C160  1  0.07535000  0.03414000  0.50276000  1.0
  C  C161  1  0.17982000  0.24703000  0.71771000  1.0
  C  C162  1  0.14468000  0.25136000  0.78333000  1.0
  C  C163  1  0.11105000  0.46926000  0.99625000  1.0
  C  C164  1  0.42895000  0.46914000  0.99632000  1.0
  C  C165  1  0.32696000  0.25148000  0.78334000  1.0
  C  C166  1  0.36201000  0.24691000  0.71777000  1.0
  C  C167  1  0.39317000  0.03422000  0.50264000  1.0
  C  C168  1  0.46594000  0.06789000  0.50578000  1.0
  C  C169  1  0.43017000  0.13877000  0.50768000  1.0
  C  C170  1  0.28901000  0.24509000  0.68362000  1.0
  C  C171  1  0.32477000  0.24490000  0.61226000  1.0
  C  C172  1  0.21784000  0.25334000  0.81743000  1.0
  C  C173  1  0.18174000  0.25495000  0.88843000  1.0
  C  C174  1  0.03872000  0.43535000  0.99311000  1.0
  C  C175  1  0.07594000  0.36404000  0.99194000  1.0
  C  C176  1  0.57535000  0.03414000  0.50276000  1.0
  C  C177  1  0.67982000  0.24703000  0.71771000  1.0
  C  C178  1  0.64468000  0.25136000  0.78333000  1.0
  C  C179  1  0.61105000  0.46926000  0.99625000  1.0
  C  C180  1  0.92895000  0.46914000  0.99632000  1.0
  C  C181  1  0.82696000  0.25148000  0.78334000  1.0
  C  C182  1  0.86201000  0.24691000  0.71777000  1.0
  C  C183  1  0.89317000  0.03422000  0.50264000  1.0
  C  C184  1  0.96594000  0.06789000  0.50578000  1.0
  C  C185  1  0.93017000  0.13877000  0.50768000  1.0
  C  C186  1  0.78901000  0.24509000  0.68362000  1.0
  C  C187  1  0.82477000  0.24490000  0.61226000  1.0
  C  C188  1  0.71784000  0.25334000  0.81743000  1.0
  C  C189  1  0.68174000  0.25495000  0.88843000  1.0
  C  C190  1  0.53872000  0.43535000  0.99311000  1.0
  C  C191  1  0.57594000  0.36404000  0.99194000  1.0
  C  C192  1  0.07535000  0.53414000  0.50276000  1.0
  C  C193  1  0.17982000  0.74703000  0.71771000  1.0
  C  C194  1  0.14468000  0.75136000  0.78333000  1.0
  C  C195  1  0.11105000  0.96926000  0.99625000  1.0
  C  C196  1  0.42895000  0.96914000  0.99632000  1.0
  C  C197  1  0.32696000  0.75148000  0.78334000  1.0
  C  C198  1  0.36201000  0.74691000  0.71777000  1.0
  C  C199  1  0.39317000  0.53422000  0.50264000  1.0
  C  C200  1  0.46594000  0.56789000  0.50578000  1.0
  C  C201  1  0.43017000  0.63877000  0.50768000  1.0
  C  C202  1  0.28901000  0.74509000  0.68362000  1.0
  C  C203  1  0.32477000  0.74490000  0.61226000  1.0
  C  C204  1  0.21784000  0.75334000  0.81743000  1.0
  C  C205  1  0.18174000  0.75495000  0.88843000  1.0
  C  C206  1  0.03872000  0.93535000  0.99311000  1.0
  C  C207  1  0.07594000  0.86404000  0.99194000  1.0
  C  C208  1  0.57535000  0.53414000  0.50276000  1.0
  C  C209  1  0.67982000  0.74703000  0.71771000  1.0
  C  C210  1  0.64468000  0.75136000  0.78333000  1.0
  C  C211  1  0.61105000  0.96926000  0.99625000  1.0
  C  C212  1  0.92895000  0.96914000  0.99632000  1.0
  C  C213  1  0.82696000  0.75148000  0.78334000  1.0
  C  C214  1  0.86201000  0.74691000  0.71777000  1.0
  C  C215  1  0.89317000  0.53422000  0.50264000  1.0
  C  C216  1  0.96594000  0.56789000  0.50578000  1.0
  C  C217  1  0.93017000  0.63877000  0.50768000  1.0
  C  C218  1  0.78901000  0.74509000  0.68362000  1.0
  C  C219  1  0.82477000  0.74490000  0.61226000  1.0
  C  C220  1  0.71784000  0.75334000  0.81743000  1.0
  C  C221  1  0.68174000  0.75495000  0.88843000  1.0
  C  C222  1  0.53872000  0.93535000  0.99311000  1.0
  C  C223  1  0.57594000  0.86404000  0.99194000  1.0
  O  O224  1  0.32980000  0.16825000  0.00764000  1.0
  O  O225  1  0.42520000  0.24529000  0.08281000  1.0
  O  O226  1  0.25270000  0.25543000  0.41765000  1.0
  O  O227  1  0.00484000  0.33434000  0.49239000  1.0
  O  O228  1  0.17642000  0.33491000  0.49289000  1.0
  O  O229  1  0.08135000  0.25454000  0.41757000  1.0
  O  O230  1  0.25293000  0.24589000  0.08303000  1.0
  O  O231  1  0.00232000  0.16795000  0.00653000  1.0
  O  O232  1  0.37785000  0.28006000  0.47279000  1.0
  O  O233  1  0.12679000  0.22507000  0.02958000  1.0
  O  O234  1  0.82980000  0.16825000  0.00764000  1.0
  O  O235  1  0.92520000  0.24529000  0.08281000  1.0
  O  O236  1  0.75270000  0.25543000  0.41765000  1.0
  O  O237  1  0.50484000  0.33434000  0.49239000  1.0
  O  O238  1  0.67642000  0.33491000  0.49289000  1.0
  O  O239  1  0.58135000  0.25454000  0.41757000  1.0
  O  O240  1  0.75293000  0.24589000  0.08303000  1.0
  O  O241  1  0.50232000  0.16795000  0.00653000  1.0
  O  O242  1  0.87785000  0.28006000  0.47279000  1.0
  O  O243  1  0.62679000  0.22507000  0.02958000  1.0
  O  O244  1  0.32980000  0.66825000  0.00764000  1.0
  O  O245  1  0.42520000  0.74529000  0.08281000  1.0
  O  O246  1  0.25270000  0.75543000  0.41765000  1.0
  O  O247  1  0.00484000  0.83434000  0.49239000  1.0
  O  O248  1  0.17642000  0.83491000  0.49289000  1.0
  O  O249  1  0.08135000  0.75454000  0.41757000  1.0
  O  O250  1  0.25293000  0.74589000  0.08303000  1.0
  O  O251  1  0.00232000  0.66795000  0.00653000  1.0
  O  O252  1  0.37785000  0.78006000  0.47279000  1.0
  O  O253  1  0.12679000  0.72507000  0.02958000  1.0
  O  O254  1  0.82980000  0.66825000  0.00764000  1.0
  O  O255  1  0.92520000  0.74529000  0.08281000  1.0
  O  O256  1  0.75270000  0.75543000  0.41765000  1.0
  O  O257  1  0.50484000  0.83434000  0.49239000  1.0
  O  O258  1  0.67642000  0.83491000  0.49289000  1.0
  O  O259  1  0.58135000  0.75454000  0.41757000  1.0
  O  O260  1  0.75293000  0.74589000  0.08303000  1.0
  O  O261  1  0.50232000  0.66795000  0.00653000  1.0
  O  O262  1  0.87785000  0.78006000  0.47279000  1.0
  O  O263  1  0.62679000  0.72507000  0.02958000  1.0
  O  O264  1  0.32980000  0.16825000  0.50764000  1.0
  O  O265  1  0.42520000  0.24529000  0.58281000  1.0
  O  O266  1  0.25270000  0.25543000  0.91765000  1.0
  O  O267  1  0.00484000  0.33434000  0.99239000  1.0
  O  O268  1  0.17642000  0.33491000  0.99289000  1.0
  O  O269  1  0.08135000  0.25454000  0.91757000  1.0
  O  O270  1  0.25293000  0.24589000  0.58303000  1.0
  O  O271  1  0.00232000  0.16795000  0.50653000  1.0
  O  O272  1  0.37785000  0.28006000  0.97279000  1.0
  O  O273  1  0.12679000  0.22507000  0.52958000  1.0
  O  O274  1  0.82980000  0.16825000  0.50764000  1.0
  O  O275  1  0.92520000  0.24529000  0.58281000  1.0
  O  O276  1  0.75270000  0.25543000  0.91765000  1.0
  O  O277  1  0.50484000  0.33434000  0.99239000  1.0
  O  O278  1  0.67642000  0.33491000  0.99289000  1.0
  O  O279  1  0.58135000  0.25454000  0.91757000  1.0
  O  O280  1  0.75293000  0.24589000  0.58303000  1.0
  O  O281  1  0.50232000  0.16795000  0.50653000  1.0
  O  O282  1  0.87785000  0.28006000  0.97279000  1.0
  O  O283  1  0.62679000  0.22507000  0.52958000  1.0
  O  O284  1  0.32980000  0.66825000  0.50764000  1.0
  O  O285  1  0.42520000  0.74529000  0.58281000  1.0
  O  O286  1  0.25270000  0.75543000  0.91765000  1.0
  O  O287  1  0.00484000  0.83434000  0.99239000  1.0
  O  O288  1  0.17642000  0.83491000  0.99289000  1.0
  O  O289  1  0.08135000  0.75454000  0.91757000  1.0
  O  O290  1  0.25293000  0.74589000  0.58303000  1.0
  O  O291  1  0.00232000  0.66795000  0.50653000  1.0
  O  O292  1  0.37785000  0.78006000  0.97279000  1.0
  O  O293  1  0.12679000  0.72507000  0.52958000  1.0
  O  O294  1  0.82980000  0.66825000  0.50764000  1.0
  O  O295  1  0.92520000  0.74529000  0.58281000  1.0
  O  O296  1  0.75270000  0.75543000  0.91765000  1.0
  O  O297  1  0.50484000  0.83434000  0.99239000  1.0
  O  O298  1  0.67642000  0.83491000  0.99289000  1.0
  O  O299  1  0.58135000  0.75454000  0.91757000  1.0
  O  O300  1  0.75293000  0.74589000  0.58303000  1.0
  O  O301  1  0.50232000  0.66795000  0.50653000  1.0
  O  O302  1  0.87785000  0.78006000  0.97279000  1.0
  O  O303  1  0.62679000  0.72507000  0.52958000  1.0
