# generated using pymatgen
data_V2CuH14C13N2O3
_symmetry_space_group_name_H-M   'P 1'
_cell_length_a   13.11870000
_cell_length_b   23.92000000
_cell_length_c   19.68900000
_cell_angle_alpha   90.00000000
_cell_angle_beta   90.00000000
_cell_angle_gamma   90.00000000
_symmetry_Int_Tables_number   1
_chemical_formula_structural   V2CuH14C13N2O3
_chemical_formula_sum   'V24 Cu12 H168 C156 N24 O36'
_cell_volume   6178.39449646
_cell_formula_units_Z   12
loop_
 _symmetry_equiv_pos_site_id
 _symmetry_equiv_pos_as_xyz
  1  'x, y, z'
loop_
 _atom_site_type_symbol
 _atom_site_label
 _atom_site_symmetry_multiplicity
 _atom_site_fract_x
 _atom_site_fract_y
 _atom_site_fract_z
 _atom_site_occupancy
  V  V0  1  0.84195000  0.53972000  0.33479000  1.0
  V  V1  1  0.66270000  0.46734000  0.42782000  1.0
  V  V2  1  0.44124000  0.53372000  0.37705000  1.0
  V  V3  1  0.25001000  0.46885000  0.28687000  1.0
  V  V4  1  0.07835000  0.52693000  0.38430000  1.0
  V  V5  1  0.25814000  0.61317000  0.43353000  1.0
  V  V6  1  0.15805000  0.46028000  0.83479000  1.0
  V  V7  1  0.33730000  0.53266000  0.92782000  1.0
  V  V8  1  0.55876000  0.46628000  0.87705000  1.0
  V  V9  1  0.74999000  0.53115000  0.78687000  1.0
  V  V10  1  0.92165000  0.47307000  0.88430000  1.0
  V  V11  1  0.74186000  0.38683000  0.93353000  1.0
  V  V12  1  0.15805000  0.03972000  0.33479000  1.0
  V  V13  1  0.33730000  0.96734000  0.42782000  1.0
  V  V14  1  0.55876000  0.03372000  0.37705000  1.0
  V  V15  1  0.74999000  0.96885000  0.28687000  1.0
  V  V16  1  0.92165000  0.02693000  0.38430000  1.0
  V  V17  1  0.74186000  0.11317000  0.43353000  1.0
  V  V18  1  0.84195000  0.96028000  0.83479000  1.0
  V  V19  1  0.66270000  0.03266000  0.92782000  1.0
  V  V20  1  0.44124000  0.96628000  0.87705000  1.0
  V  V21  1  0.25001000  0.03115000  0.78687000  1.0
  V  V22  1  0.07835000  0.97307000  0.88430000  1.0
  V  V23  1  0.25814000  0.88683000  0.93353000  1.0
  Cu  Cu24  1  0.86030000  0.49535000  0.16208000  1.0
  Cu  Cu25  1  0.62835000  0.45154000  0.61101000  1.0
  Cu  Cu26  1  0.79626000  0.97582000  0.09952000  1.0
  Cu  Cu27  1  0.13970000  0.50465000  0.66208000  1.0
  Cu  Cu28  1  0.37165000  0.54846000  0.11101000  1.0
  Cu  Cu29  1  0.20374000  0.02418000  0.59952000  1.0
  Cu  Cu30  1  0.13970000  0.99535000  0.16208000  1.0
  Cu  Cu31  1  0.37165000  0.95154000  0.61101000  1.0
  Cu  Cu32  1  0.20374000  0.47582000  0.09952000  1.0
  Cu  Cu33  1  0.86030000  0.00465000  0.66208000  1.0
  Cu  Cu34  1  0.62835000  0.04846000  0.11101000  1.0
  Cu  Cu35  1  0.79626000  0.52418000  0.59952000  1.0
  H  H36  1  0.00580000  0.42050000  0.23150000  1.0
  H  H37  1  0.09390000  0.34450000  0.21330000  1.0
  H  H38  1  0.00290000  0.34940000  0.02180000  1.0
  H  H39  1  0.92010000  0.42840000  0.04680000  1.0
  H  H40  1  0.16770000  0.27750000  0.13490000  1.0
  H  H41  1  0.14310000  0.28300000  0.05730000  1.0
  H  H42  1  0.98900000  0.23480000  0.07210000  1.0
  H  H43  1  0.00660000  0.23230000  0.15080000  1.0
  H  H44  1  0.13560000  0.17590000  0.05680000  1.0
  H  H45  1  0.14550000  0.17120000  0.13600000  1.0
  H  H46  1  0.01070000  0.12010000  0.00150000  1.0
  H  H47  1  0.90150000  0.04420000  0.00140000  1.0
  H  H48  1  0.90230000  0.04420000  0.20110000  1.0
  H  H49  1  0.01780000  0.11410000  0.20100000  1.0
  H  H50  1  0.79070000  0.52340000  0.02450000  1.0
  H  H51  1  0.67850000  0.58840000  0.97650000  1.0
  H  H52  1  0.58800000  0.63280000  0.15980000  1.0
  H  H53  1  0.69810000  0.56870000  0.20480000  1.0
  H  H54  1  0.48600000  0.66150000  0.05450000  1.0
  H  H55  1  0.53820000  0.65170000  0.98350000  1.0
  H  H56  1  0.63780000  0.71980000  0.08180000  1.0
  H  H57  1  0.66030000  0.71920000  0.00370000  1.0
  H  H58  1  0.48160000  0.76400000  0.05830000  1.0
  H  H59  1  0.51520000  0.76810000  0.98190000  1.0
  H  H60  1  0.64040000  0.83960000  0.94980000  1.0
  H  H61  1  0.74320000  0.91350000  0.97900000  1.0
  H  H62  1  0.68230000  0.88960000  0.16980000  1.0
  H  H63  1  0.58280000  0.81530000  0.14310000  1.0
  H  H64  1  0.69100000  0.38940000  0.72840000  1.0
  H  H65  1  0.74890000  0.30150000  0.75640000  1.0
  H  H66  1  0.76420000  0.26960000  0.55840000  1.0
  H  H67  1  0.71350000  0.35540000  0.53710000  1.0
  H  H68  1  0.81430000  0.21290000  0.72310000  1.0
  H  H69  1  0.83950000  0.20170000  0.64630000  1.0
  H  H70  1  0.63860000  0.19360000  0.70070000  1.0
  H  H71  1  0.66610000  0.18040000  0.62480000  1.0
  H  H72  1  0.77270000  0.10570000  0.66630000  1.0
  H  H73  1  0.72530000  0.11600000  0.73840000  1.0
  H  H74  1  0.62970000  0.09430000  0.56730000  1.0
  H  H75  1  0.50600000  0.03200000  0.53980000  1.0
  H  H76  1  0.47790000  0.98800000  0.72940000  1.0
  H  H77  1  0.58590000  0.05220000  0.76220000  1.0
  H  H78  1  0.99420000  0.57950000  0.73150000  1.0
  H  H79  1  0.90610000  0.65550000  0.71330000  1.0
  H  H80  1  0.99710000  0.65060000  0.52180000  1.0
  H  H81  1  0.07990000  0.57160000  0.54680000  1.0
  H  H82  1  0.83230000  0.72250000  0.63490000  1.0
  H  H83  1  0.85690000  0.71700000  0.55730000  1.0
  H  H84  1  0.01100000  0.76520000  0.57210000  1.0
  H  H85  1  0.99340000  0.76770000  0.65080000  1.0
  H  H86  1  0.86440000  0.82410000  0.55680000  1.0
  H  H87  1  0.85450000  0.82880000  0.63600000  1.0
  H  H88  1  0.98930000  0.87990000  0.50150000  1.0
  H  H89  1  0.09850000  0.95580000  0.50140000  1.0
  H  H90  1  0.09770000  0.95580000  0.70110000  1.0
  H  H91  1  0.98220000  0.88590000  0.70100000  1.0
  H  H92  1  0.20930000  0.47660000  0.52450000  1.0
  H  H93  1  0.32150000  0.41160000  0.47650000  1.0
  H  H94  1  0.41200000  0.36720000  0.65980000  1.0
  H  H95  1  0.30190000  0.43130000  0.70480000  1.0
  H  H96  1  0.51400000  0.33850000  0.55450000  1.0
  H  H97  1  0.46180000  0.34830000  0.48350000  1.0
  H  H98  1  0.36220000  0.28020000  0.58180000  1.0
  H  H99  1  0.33970000  0.28080000  0.50370000  1.0
  H  H100  1  0.51840000  0.23600000  0.55830000  1.0
  H  H101  1  0.48480000  0.23190000  0.48190000  1.0
  H  H102  1  0.35960000  0.16040000  0.44980000  1.0
  H  H103  1  0.25680000  0.08650000  0.47900000  1.0
  H  H104  1  0.31770000  0.11040000  0.66980000  1.0
  H  H105  1  0.41720000  0.18470000  0.64310000  1.0
  H  H106  1  0.30900000  0.61060000  0.22840000  1.0
  H  H107  1  0.25110000  0.69850000  0.25640000  1.0
  H  H108  1  0.23580000  0.73040000  0.05840000  1.0
  H  H109  1  0.28650000  0.64460000  0.03710000  1.0
  H  H110  1  0.18570000  0.78710000  0.22310000  1.0
  H  H111  1  0.16050000  0.79830000  0.14630000  1.0
  H  H112  1  0.36140000  0.80640000  0.20070000  1.0
  H  H113  1  0.33390000  0.81960000  0.12480000  1.0
  H  H114  1  0.22730000  0.89430000  0.16630000  1.0
  H  H115  1  0.27470000  0.88400000  0.23840000  1.0
  H  H116  1  0.37030000  0.90570000  0.06730000  1.0
  H  H117  1  0.49400000  0.96800000  0.03980000  1.0
  H  H118  1  0.52210000  0.01200000  0.22940000  1.0
  H  H119  1  0.41410000  0.94780000  0.26220000  1.0
  H  H120  1  0.99420000  0.92050000  0.23150000  1.0
  H  H121  1  0.90610000  0.84450000  0.21330000  1.0
  H  H122  1  0.99710000  0.84940000  0.02180000  1.0
  H  H123  1  0.07990000  0.92840000  0.04680000  1.0
  H  H124  1  0.83230000  0.77750000  0.13490000  1.0
  H  H125  1  0.85690000  0.78300000  0.05730000  1.0
  H  H126  1  0.01100000  0.73480000  0.07210000  1.0
  H  H127  1  0.99340000  0.73230000  0.15080000  1.0
  H  H128  1  0.86440000  0.67590000  0.05680000  1.0
  H  H129  1  0.85450000  0.67120000  0.13600000  1.0
  H  H130  1  0.98930000  0.62010000  0.00150000  1.0
  H  H131  1  0.09850000  0.54420000  0.00140000  1.0
  H  H132  1  0.09770000  0.54420000  0.20110000  1.0
  H  H133  1  0.98220000  0.61410000  0.20100000  1.0
  H  H134  1  0.20930000  0.02340000  0.02450000  1.0
  H  H135  1  0.32150000  0.08840000  0.97650000  1.0
  H  H136  1  0.41200000  0.13280000  0.15980000  1.0
  H  H137  1  0.30190000  0.06870000  0.20480000  1.0
  H  H138  1  0.51400000  0.16150000  0.05450000  1.0
  H  H139  1  0.46180000  0.15170000  0.98350000  1.0
  H  H140  1  0.36220000  0.21980000  0.08180000  1.0
  H  H141  1  0.33970000  0.21920000  0.00370000  1.0
  H  H142  1  0.51840000  0.26400000  0.05830000  1.0
  H  H143  1  0.48480000  0.26810000  0.98190000  1.0
  H  H144  1  0.35960000  0.33960000  0.94980000  1.0
  H  H145  1  0.25680000  0.41350000  0.97900000  1.0
  H  H146  1  0.31770000  0.38960000  0.16980000  1.0
  H  H147  1  0.41720000  0.31530000  0.14310000  1.0
  H  H148  1  0.30900000  0.88940000  0.72840000  1.0
  H  H149  1  0.25110000  0.80150000  0.75640000  1.0
  H  H150  1  0.23580000  0.76960000  0.55840000  1.0
  H  H151  1  0.28650000  0.85540000  0.53710000  1.0
  H  H152  1  0.18570000  0.71290000  0.72310000  1.0
  H  H153  1  0.16050000  0.70170000  0.64630000  1.0
  H  H154  1  0.36140000  0.69360000  0.70070000  1.0
  H  H155  1  0.33390000  0.68040000  0.62480000  1.0
  H  H156  1  0.22730000  0.60570000  0.66630000  1.0
  H  H157  1  0.27470000  0.61600000  0.73840000  1.0
  H  H158  1  0.37030000  0.59430000  0.56730000  1.0
  H  H159  1  0.49400000  0.53200000  0.53980000  1.0
  H  H160  1  0.52210000  0.48800000  0.72940000  1.0
  H  H161  1  0.41410000  0.55220000  0.76220000  1.0
  H  H162  1  0.00580000  0.07950000  0.73150000  1.0
  H  H163  1  0.09390000  0.15550000  0.71330000  1.0
  H  H164  1  0.00290000  0.15060000  0.52180000  1.0
  H  H165  1  0.92010000  0.07160000  0.54680000  1.0
  H  H166  1  0.16770000  0.22250000  0.63490000  1.0
  H  H167  1  0.14310000  0.21700000  0.55730000  1.0
  H  H168  1  0.98900000  0.26520000  0.57210000  1.0
  H  H169  1  0.00660000  0.26770000  0.65080000  1.0
  H  H170  1  0.13560000  0.32410000  0.55680000  1.0
  H  H171  1  0.14550000  0.32880000  0.63600000  1.0
  H  H172  1  0.01070000  0.37990000  0.50150000  1.0
  H  H173  1  0.90150000  0.45580000  0.50140000  1.0
  H  H174  1  0.90230000  0.45580000  0.70110000  1.0
  H  H175  1  0.01780000  0.38590000  0.70100000  1.0
  H  H176  1  0.79070000  0.97660000  0.52450000  1.0
  H  H177  1  0.67850000  0.91160000  0.47650000  1.0
  H  H178  1  0.58800000  0.86720000  0.65980000  1.0
  H  H179  1  0.69810000  0.93130000  0.70480000  1.0
  H  H180  1  0.48600000  0.83850000  0.55450000  1.0
  H  H181  1  0.53820000  0.84830000  0.48350000  1.0
  H  H182  1  0.63780000  0.78020000  0.58180000  1.0
  H  H183  1  0.66030000  0.78080000  0.50370000  1.0
  H  H184  1  0.48160000  0.73600000  0.55830000  1.0
  H  H185  1  0.51520000  0.73190000  0.48190000  1.0
  H  H186  1  0.64040000  0.66040000  0.44980000  1.0
  H  H187  1  0.74320000  0.58650000  0.47900000  1.0
  H  H188  1  0.68230000  0.61040000  0.66980000  1.0
  H  H189  1  0.58280000  0.68470000  0.64310000  1.0
  H  H190  1  0.69100000  0.11060000  0.22840000  1.0
  H  H191  1  0.74890000  0.19850000  0.25640000  1.0
  H  H192  1  0.76420000  0.23040000  0.05840000  1.0
  H  H193  1  0.71350000  0.14460000  0.03710000  1.0
  H  H194  1  0.81430000  0.28710000  0.22310000  1.0
  H  H195  1  0.83950000  0.29830000  0.14630000  1.0
  H  H196  1  0.63860000  0.30640000  0.20070000  1.0
  H  H197  1  0.66610000  0.31960000  0.12480000  1.0
  H  H198  1  0.77270000  0.39430000  0.16630000  1.0
  H  H199  1  0.72530000  0.38400000  0.23840000  1.0
  H  H200  1  0.62970000  0.40570000  0.06730000  1.0
  H  H201  1  0.50600000  0.46800000  0.03980000  1.0
  H  H202  1  0.47790000  0.51200000  0.22940000  1.0
  H  H203  1  0.58590000  0.44780000  0.26220000  1.0
  C  C204  1  0.00540000  0.40600000  0.18770000  1.0
  C  C205  1  0.05770000  0.36040000  0.17760000  1.0
  C  C206  1  0.06000000  0.33600000  0.11540000  1.0
  C  C207  1  0.00520000  0.36340000  0.06580000  1.0
  C  C208  1  0.95520000  0.41060000  0.08170000  1.0
  C  C209  1  0.11300000  0.28200000  0.10220000  1.0
  C  C210  1  0.04070000  0.23170000  0.10710000  1.0
  C  C211  1  0.09730000  0.17550000  0.09900000  1.0
  C  C212  1  0.02630000  0.12680000  0.09860000  1.0
  C  C213  1  0.99090000  0.10490000  0.04280000  1.0
  C  C214  1  0.92360000  0.05880000  0.04270000  1.0
  C  C215  1  0.92570000  0.05850000  0.16000000  1.0
  C  C216  1  0.99260000  0.10100000  0.15980000  1.0
  C  C217  1  0.75190000  0.54660000  0.05220000  1.0
  C  C218  1  0.68180000  0.58480000  0.02350000  1.0
  C  C219  1  0.62000000  0.61590000  0.06240000  1.0
  C  C220  1  0.62830000  0.61110000  0.13130000  1.0
  C  C221  1  0.69660000  0.57380000  0.15800000  1.0
  C  C222  1  0.55090000  0.66030000  0.03090000  1.0
  C  C223  1  0.60630000  0.71770000  0.03730000  1.0
  C  C224  1  0.54000000  0.76680000  0.02830000  1.0
  C  C225  1  0.59810000  0.81830000  0.04380000  1.0
  C  C226  1  0.64810000  0.84900000  0.99530000  1.0
  C  C227  1  0.70980000  0.89370000  0.01300000  1.0
  C  C228  1  0.67490000  0.87980000  0.12440000  1.0
  C  C229  1  0.61420000  0.83490000  0.10810000  1.0
  C  C230  1  0.70630000  0.36430000  0.69390000  1.0
  C  C231  1  0.74040000  0.31140000  0.71110000  1.0
  C  C232  1  0.76150000  0.27420000  0.66070000  1.0
  C  C233  1  0.74970000  0.29340000  0.59450000  1.0
  C  C234  1  0.71870000  0.34420000  0.58220000  1.0
  C  C235  1  0.78760000  0.21520000  0.67730000  1.0
  C  C236  1  0.69120000  0.17880000  0.67110000  1.0
  C  C237  1  0.71210000  0.11830000  0.69000000  1.0
  C  C238  1  0.62480000  0.08080000  0.67230000  1.0
  C  C239  1  0.59750000  0.07360000  0.60110000  1.0
  C  C240  1  0.52390000  0.03580000  0.58520000  1.0
  C  C241  1  0.50670000  0.01110000  0.69660000  1.0
  C  C242  1  0.57340000  0.04820000  0.71590000  1.0
  C  C243  1  0.99460000  0.59400000  0.68770000  1.0
  C  C244  1  0.94230000  0.63960000  0.67760000  1.0
  C  C245  1  0.94000000  0.66400000  0.61540000  1.0
  C  C246  1  0.99480000  0.63660000  0.56580000  1.0
  C  C247  1  0.04480000  0.58940000  0.58170000  1.0
  C  C248  1  0.88700000  0.71800000  0.60220000  1.0
  C  C249  1  0.95930000  0.76830000  0.60710000  1.0
  C  C250  1  0.90270000  0.82450000  0.59900000  1.0
  C  C251  1  0.97370000  0.87320000  0.59860000  1.0
  C  C252  1  0.00910000  0.89510000  0.54280000  1.0
  C  C253  1  0.07640000  0.94120000  0.54270000  1.0
  C  C254  1  0.07430000  0.94150000  0.66000000  1.0
  C  C255  1  0.00740000  0.89900000  0.65980000  1.0
  C  C256  1  0.24810000  0.45340000  0.55220000  1.0
  C  C257  1  0.31820000  0.41520000  0.52350000  1.0
  C  C258  1  0.38000000  0.38410000  0.56240000  1.0
  C  C259  1  0.37170000  0.38890000  0.63130000  1.0
  C  C260  1  0.30340000  0.42620000  0.65800000  1.0
  C  C261  1  0.44910000  0.33970000  0.53090000  1.0
  C  C262  1  0.39370000  0.28230000  0.53730000  1.0
  C  C263  1  0.46000000  0.23320000  0.52830000  1.0
  C  C264  1  0.40190000  0.18170000  0.54380000  1.0
  C  C265  1  0.35190000  0.15100000  0.49530000  1.0
  C  C266  1  0.29020000  0.10630000  0.51300000  1.0
  C  C267  1  0.32510000  0.12020000  0.62440000  1.0
  C  C268  1  0.38580000  0.16510000  0.60810000  1.0
  C  C269  1  0.29370000  0.63570000  0.19390000  1.0
  C  C270  1  0.25960000  0.68860000  0.21110000  1.0
  C  C271  1  0.23850000  0.72580000  0.16070000  1.0
  C  C272  1  0.25030000  0.70660000  0.09450000  1.0
  C  C273  1  0.28130000  0.65580000  0.08220000  1.0
  C  C274  1  0.21240000  0.78480000  0.17730000  1.0
  C  C275  1  0.30880000  0.82120000  0.17110000  1.0
  C  C276  1  0.28790000  0.88170000  0.19000000  1.0
  C  C277  1  0.37520000  0.91920000  0.17230000  1.0
  C  C278  1  0.40250000  0.92640000  0.10110000  1.0
  C  C279  1  0.47610000  0.96420000  0.08520000  1.0
  C  C280  1  0.49330000  0.98890000  0.19660000  1.0
  C  C281  1  0.42660000  0.95180000  0.21590000  1.0
  C  C282  1  0.99460000  0.90600000  0.18770000  1.0
  C  C283  1  0.94230000  0.86040000  0.17760000  1.0
  C  C284  1  0.94000000  0.83600000  0.11540000  1.0
  C  C285  1  0.99480000  0.86340000  0.06580000  1.0
  C  C286  1  0.04480000  0.91060000  0.08170000  1.0
  C  C287  1  0.88700000  0.78200000  0.10220000  1.0
  C  C288  1  0.95930000  0.73170000  0.10710000  1.0
  C  C289  1  0.90270000  0.67550000  0.09900000  1.0
  C  C290  1  0.97370000  0.62680000  0.09860000  1.0
  C  C291  1  0.00910000  0.60490000  0.04280000  1.0
  C  C292  1  0.07640000  0.55880000  0.04270000  1.0
  C  C293  1  0.07430000  0.55850000  0.16000000  1.0
  C  C294  1  0.00740000  0.60100000  0.15980000  1.0
  C  C295  1  0.24810000  0.04660000  0.05220000  1.0
  C  C296  1  0.31820000  0.08480000  0.02350000  1.0
  C  C297  1  0.38000000  0.11590000  0.06240000  1.0
  C  C298  1  0.37170000  0.11110000  0.13130000  1.0
  C  C299  1  0.30340000  0.07380000  0.15800000  1.0
  C  C300  1  0.44910000  0.16030000  0.03090000  1.0
  C  C301  1  0.39370000  0.21770000  0.03730000  1.0
  C  C302  1  0.46000000  0.26680000  0.02830000  1.0
  C  C303  1  0.40190000  0.31830000  0.04380000  1.0
  C  C304  1  0.35190000  0.34900000  0.99530000  1.0
  C  C305  1  0.29020000  0.39370000  0.01300000  1.0
  C  C306  1  0.32510000  0.37980000  0.12440000  1.0
  C  C307  1  0.38580000  0.33490000  0.10810000  1.0
  C  C308  1  0.29370000  0.86430000  0.69390000  1.0
  C  C309  1  0.25960000  0.81140000  0.71110000  1.0
  C  C310  1  0.23850000  0.77420000  0.66070000  1.0
  C  C311  1  0.25030000  0.79340000  0.59450000  1.0
  C  C312  1  0.28130000  0.84420000  0.58220000  1.0
  C  C313  1  0.21240000  0.71520000  0.67730000  1.0
  C  C314  1  0.30880000  0.67880000  0.67110000  1.0
  C  C315  1  0.28790000  0.61830000  0.69000000  1.0
  C  C316  1  0.37520000  0.58080000  0.67230000  1.0
  C  C317  1  0.40250000  0.57360000  0.60110000  1.0
  C  C318  1  0.47610000  0.53580000  0.58520000  1.0
  C  C319  1  0.49330000  0.51110000  0.69660000  1.0
  C  C320  1  0.42660000  0.54820000  0.71590000  1.0
  C  C321  1  0.00540000  0.09400000  0.68770000  1.0
  C  C322  1  0.05770000  0.13960000  0.67760000  1.0
  C  C323  1  0.06000000  0.16400000  0.61540000  1.0
  C  C324  1  0.00520000  0.13660000  0.56580000  1.0
  C  C325  1  0.95520000  0.08940000  0.58170000  1.0
  C  C326  1  0.11300000  0.21800000  0.60220000  1.0
  C  C327  1  0.04070000  0.26830000  0.60710000  1.0
  C  C328  1  0.09730000  0.32450000  0.59900000  1.0
  C  C329  1  0.02630000  0.37320000  0.59860000  1.0
  C  C330  1  0.99090000  0.39510000  0.54280000  1.0
  C  C331  1  0.92360000  0.44120000  0.54270000  1.0
  C  C332  1  0.92570000  0.44150000  0.66000000  1.0
  C  C333  1  0.99260000  0.39900000  0.65980000  1.0
  C  C334  1  0.75190000  0.95340000  0.55220000  1.0
  C  C335  1  0.68180000  0.91520000  0.52350000  1.0
  C  C336  1  0.62000000  0.88410000  0.56240000  1.0
  C  C337  1  0.62830000  0.88890000  0.63130000  1.0
  C  C338  1  0.69660000  0.92620000  0.65800000  1.0
  C  C339  1  0.55090000  0.83970000  0.53090000  1.0
  C  C340  1  0.60630000  0.78230000  0.53730000  1.0
  C  C341  1  0.54000000  0.73320000  0.52830000  1.0
  C  C342  1  0.59810000  0.68170000  0.54380000  1.0
  C  C343  1  0.64810000  0.65100000  0.49530000  1.0
  C  C344  1  0.70980000  0.60630000  0.51300000  1.0
  C  C345  1  0.67490000  0.62020000  0.62440000  1.0
  C  C346  1  0.61420000  0.66510000  0.60810000  1.0
  C  C347  1  0.70630000  0.13570000  0.19390000  1.0
  C  C348  1  0.74040000  0.18860000  0.21110000  1.0
  C  C349  1  0.76150000  0.22580000  0.16070000  1.0
  C  C350  1  0.74970000  0.20660000  0.09450000  1.0
  C  C351  1  0.71870000  0.15580000  0.08220000  1.0
  C  C352  1  0.78760000  0.28480000  0.17730000  1.0
  C  C353  1  0.69120000  0.32120000  0.17110000  1.0
  C  C354  1  0.71210000  0.38170000  0.19000000  1.0
  C  C355  1  0.62480000  0.41920000  0.17230000  1.0
  C  C356  1  0.59750000  0.42640000  0.10110000  1.0
  C  C357  1  0.52390000  0.46420000  0.08520000  1.0
  C  C358  1  0.50670000  0.48890000  0.19660000  1.0
  C  C359  1  0.57340000  0.45180000  0.21590000  1.0
  N  N360  1  0.95120000  0.43390000  0.14140000  1.0
  N  N361  1  0.89140000  0.03620000  0.09980000  1.0
  N  N362  1  0.76150000  0.54440000  0.11940000  1.0
  N  N363  1  0.72280000  0.90910000  0.07810000  1.0
  N  N364  1  0.69440000  0.38040000  0.62960000  1.0
  N  N365  1  0.47620000  0.00430000  0.62970000  1.0
  N  N366  1  0.04880000  0.56610000  0.64140000  1.0
  N  N367  1  0.10860000  0.96380000  0.59980000  1.0
  N  N368  1  0.23850000  0.45560000  0.61940000  1.0
  N  N369  1  0.27720000  0.09090000  0.57810000  1.0
  N  N370  1  0.30560000  0.61960000  0.12960000  1.0
  N  N371  1  0.52380000  0.99570000  0.12970000  1.0
  N  N372  1  0.04880000  0.93390000  0.14140000  1.0
  N  N373  1  0.10860000  0.53620000  0.09980000  1.0
  N  N374  1  0.23850000  0.04440000  0.11940000  1.0
  N  N375  1  0.27720000  0.40910000  0.07810000  1.0
  N  N376  1  0.30560000  0.88040000  0.62960000  1.0
  N  N377  1  0.52380000  0.50430000  0.62970000  1.0
  N  N378  1  0.95120000  0.06610000  0.64140000  1.0
  N  N379  1  0.89140000  0.46380000  0.59980000  1.0
  N  N380  1  0.76150000  0.95560000  0.61940000  1.0
  N  N381  1  0.72280000  0.59090000  0.57810000  1.0
  N  N382  1  0.69440000  0.11960000  0.12960000  1.0
  N  N383  1  0.47620000  0.49570000  0.12970000  1.0
  O  O384  1  0.85750000  0.50340000  0.26580000  1.0
  O  O385  1  0.96080000  0.55750000  0.37220000  1.0
  O  O386  1  0.75600000  0.50820000  0.39230000  1.0
  O  O387  1  0.68150000  0.46590000  0.50920000  1.0
  O  O388  1  0.53830000  0.49580000  0.41480000  1.0
  O  O389  1  0.36040000  0.48660000  0.33860000  1.0
  O  O390  1  0.37340000  0.57250000  0.43760000  1.0
  O  O391  1  0.14160000  0.50770000  0.31270000  1.0
  O  O392  1  0.15020000  0.56470000  0.43920000  1.0
  O  O393  1  0.14250000  0.49660000  0.76580000  1.0
  O  O394  1  0.03920000  0.44250000  0.87220000  1.0
  O  O395  1  0.24400000  0.49180000  0.89230000  1.0
  O  O396  1  0.31850000  0.53410000  0.00920000  1.0
  O  O397  1  0.46170000  0.50420000  0.91480000  1.0
  O  O398  1  0.63960000  0.51340000  0.83860000  1.0
  O  O399  1  0.62660000  0.42750000  0.93760000  1.0
  O  O400  1  0.85840000  0.49230000  0.81270000  1.0
  O  O401  1  0.84980000  0.43530000  0.93920000  1.0
  O  O402  1  0.14250000  0.00340000  0.26580000  1.0
  O  O403  1  0.03920000  0.05750000  0.37220000  1.0
  O  O404  1  0.24400000  0.00820000  0.39230000  1.0
  O  O405  1  0.31850000  0.96590000  0.50920000  1.0
  O  O406  1  0.46170000  0.99580000  0.41480000  1.0
  O  O407  1  0.63960000  0.98660000  0.33860000  1.0
  O  O408  1  0.62660000  0.07250000  0.43760000  1.0
  O  O409  1  0.85840000  0.00770000  0.31270000  1.0
  O  O410  1  0.84980000  0.06470000  0.43920000  1.0
  O  O411  1  0.85750000  0.99660000  0.76580000  1.0
  O  O412  1  0.96080000  0.94250000  0.87220000  1.0
  O  O413  1  0.75600000  0.99180000  0.89230000  1.0
  O  O414  1  0.68150000  0.03410000  0.00920000  1.0
  O  O415  1  0.53830000  0.00420000  0.91480000  1.0
  O  O416  1  0.36040000  0.01340000  0.83860000  1.0
  O  O417  1  0.37340000  0.92750000  0.93760000  1.0
  O  O418  1  0.14160000  0.99230000  0.81270000  1.0
  O  O419  1  0.15020000  0.93530000  0.93920000  1.0
