# generated using pymatgen
data_AgH4C6NO2
_symmetry_space_group_name_H-M   'P 1'
_cell_length_a   7.23500000
_cell_length_b   23.71100000
_cell_length_c   30.53000000
_cell_angle_alpha   90.00000000
_cell_angle_beta   90.00000000
_cell_angle_gamma   90.00000000
_symmetry_Int_Tables_number   1
_chemical_formula_structural   AgH4C6NO2
_chemical_formula_sum   'Ag32 H128 C192 N32 O64'
_cell_volume   5237.39356505
_cell_formula_units_Z   32
loop_
 _symmetry_equiv_pos_site_id
 _symmetry_equiv_pos_as_xyz
  1  'x, y, z'
loop_
 _atom_site_type_symbol
 _atom_site_label
 _atom_site_symmetry_multiplicity
 _atom_site_fract_x
 _atom_site_fract_y
 _atom_site_fract_z
 _atom_site_occupancy
  Ag  Ag0  1  0.19517000  0.77006000  0.29060000  1.0
  Ag  Ag1  1  0.52360000  0.44216000  0.48393000  1.0
  Ag  Ag2  1  0.69517000  0.27006000  0.79060000  1.0
  Ag  Ag3  1  0.02360000  0.94216000  0.98393000  1.0
  Ag  Ag4  1  0.30483000  0.22994000  0.79060000  1.0
  Ag  Ag5  1  0.97640000  0.55784000  0.98393000  1.0
  Ag  Ag6  1  0.80483000  0.72994000  0.29060000  1.0
  Ag  Ag7  1  0.47640000  0.05784000  0.48393000  1.0
  Ag  Ag8  1  0.80483000  0.27006000  0.20940000  1.0
  Ag  Ag9  1  0.47640000  0.94216000  0.01607000  1.0
  Ag  Ag10  1  0.30483000  0.77006000  0.70940000  1.0
  Ag  Ag11  1  0.97640000  0.44216000  0.51607000  1.0
  Ag  Ag12  1  0.69517000  0.72994000  0.70940000  1.0
  Ag  Ag13  1  0.02360000  0.05784000  0.51607000  1.0
  Ag  Ag14  1  0.19517000  0.22994000  0.20940000  1.0
  Ag  Ag15  1  0.52360000  0.55784000  0.01607000  1.0
  Ag  Ag16  1  0.80483000  0.22994000  0.70940000  1.0
  Ag  Ag17  1  0.47640000  0.55784000  0.51607000  1.0
  Ag  Ag18  1  0.30483000  0.72994000  0.20940000  1.0
  Ag  Ag19  1  0.97640000  0.05784000  0.01607000  1.0
  Ag  Ag20  1  0.69517000  0.77006000  0.20940000  1.0
  Ag  Ag21  1  0.02360000  0.44216000  0.01607000  1.0
  Ag  Ag22  1  0.19517000  0.27006000  0.70940000  1.0
  Ag  Ag23  1  0.52360000  0.94216000  0.51607000  1.0
  Ag  Ag24  1  0.19517000  0.72994000  0.79060000  1.0
  Ag  Ag25  1  0.52360000  0.05784000  0.98393000  1.0
  Ag  Ag26  1  0.69517000  0.22994000  0.29060000  1.0
  Ag  Ag27  1  0.02360000  0.55784000  0.48393000  1.0
  Ag  Ag28  1  0.30483000  0.27006000  0.29060000  1.0
  Ag  Ag29  1  0.97640000  0.94216000  0.48393000  1.0
  Ag  Ag30  1  0.80483000  0.77006000  0.79060000  1.0
  Ag  Ag31  1  0.47640000  0.44216000  0.98393000  1.0
  H  H32  1  0.95620000  0.87000000  0.32860000  1.0
  H  H33  1  0.88400000  0.92000000  0.38990000  1.0
  H  H34  1  0.17440000  0.81660000  0.46020000  1.0
  H  H35  1  0.24640000  0.76590000  0.39950000  1.0
  H  H36  1  0.64310000  0.58220000  0.25800000  1.0
  H  H37  1  0.79640000  0.50920000  0.29290000  1.0
  H  H38  1  0.76910000  0.49790000  0.36710000  1.0
  H  H39  1  0.43350000  0.63220000  0.37290000  1.0
  H  H40  1  0.45620000  0.37000000  0.82860000  1.0
  H  H41  1  0.38400000  0.42000000  0.88990000  1.0
  H  H42  1  0.67440000  0.31660000  0.96020000  1.0
  H  H43  1  0.74640000  0.26590000  0.89950000  1.0
  H  H44  1  0.14310000  0.08220000  0.75800000  1.0
  H  H45  1  0.29640000  0.00920000  0.79290000  1.0
  H  H46  1  0.26910000  0.99790000  0.86710000  1.0
  H  H47  1  0.93350000  0.13220000  0.87290000  1.0
  H  H48  1  0.54380000  0.13000000  0.82860000  1.0
  H  H49  1  0.61600000  0.08000000  0.88990000  1.0
  H  H50  1  0.32560000  0.18340000  0.96020000  1.0
  H  H51  1  0.25360000  0.23410000  0.89950000  1.0
  H  H52  1  0.85690000  0.41780000  0.75800000  1.0
  H  H53  1  0.70360000  0.49080000  0.79290000  1.0
  H  H54  1  0.73090000  0.50210000  0.86710000  1.0
  H  H55  1  0.06650000  0.36780000  0.87290000  1.0
  H  H56  1  0.04380000  0.63000000  0.32860000  1.0
  H  H57  1  0.11600000  0.58000000  0.38990000  1.0
  H  H58  1  0.82560000  0.68340000  0.46020000  1.0
  H  H59  1  0.75360000  0.73410000  0.39950000  1.0
  H  H60  1  0.35690000  0.91780000  0.25800000  1.0
  H  H61  1  0.20360000  0.99080000  0.29290000  1.0
  H  H62  1  0.23090000  0.00210000  0.36710000  1.0
  H  H63  1  0.56650000  0.86780000  0.37290000  1.0
  H  H64  1  0.04380000  0.37000000  0.17140000  1.0
  H  H65  1  0.11600000  0.42000000  0.11010000  1.0
  H  H66  1  0.82560000  0.31660000  0.03980000  1.0
  H  H67  1  0.75360000  0.26590000  0.10050000  1.0
  H  H68  1  0.35690000  0.08220000  0.24200000  1.0
  H  H69  1  0.20360000  0.00920000  0.20710000  1.0
  H  H70  1  0.23090000  0.99790000  0.13290000  1.0
  H  H71  1  0.56650000  0.13220000  0.12710000  1.0
  H  H72  1  0.54380000  0.87000000  0.67140000  1.0
  H  H73  1  0.61600000  0.92000000  0.61010000  1.0
  H  H74  1  0.32560000  0.81660000  0.53980000  1.0
  H  H75  1  0.25360000  0.76590000  0.60050000  1.0
  H  H76  1  0.85690000  0.58220000  0.74200000  1.0
  H  H77  1  0.70360000  0.50920000  0.70710000  1.0
  H  H78  1  0.73090000  0.49790000  0.63290000  1.0
  H  H79  1  0.06650000  0.63220000  0.62710000  1.0
  H  H80  1  0.45620000  0.63000000  0.67140000  1.0
  H  H81  1  0.38400000  0.58000000  0.61010000  1.0
  H  H82  1  0.67440000  0.68340000  0.53980000  1.0
  H  H83  1  0.74640000  0.73410000  0.60050000  1.0
  H  H84  1  0.14310000  0.91780000  0.74200000  1.0
  H  H85  1  0.29640000  0.99080000  0.70710000  1.0
  H  H86  1  0.26910000  0.00210000  0.63290000  1.0
  H  H87  1  0.93350000  0.86780000  0.62710000  1.0
  H  H88  1  0.95620000  0.13000000  0.17140000  1.0
  H  H89  1  0.88400000  0.08000000  0.11010000  1.0
  H  H90  1  0.17440000  0.18340000  0.03980000  1.0
  H  H91  1  0.24640000  0.23410000  0.10050000  1.0
  H  H92  1  0.64310000  0.41780000  0.24200000  1.0
  H  H93  1  0.79640000  0.49080000  0.20710000  1.0
  H  H94  1  0.76910000  0.50210000  0.13290000  1.0
  H  H95  1  0.43350000  0.36780000  0.12710000  1.0
  H  H96  1  0.04380000  0.13000000  0.67140000  1.0
  H  H97  1  0.11600000  0.08000000  0.61010000  1.0
  H  H98  1  0.82560000  0.18340000  0.53980000  1.0
  H  H99  1  0.75360000  0.23410000  0.60050000  1.0
  H  H100  1  0.35690000  0.41780000  0.74200000  1.0
  H  H101  1  0.20360000  0.49080000  0.70710000  1.0
  H  H102  1  0.23090000  0.50210000  0.63290000  1.0
  H  H103  1  0.56650000  0.36780000  0.62710000  1.0
  H  H104  1  0.54380000  0.63000000  0.17140000  1.0
  H  H105  1  0.61600000  0.58000000  0.11010000  1.0
  H  H106  1  0.32560000  0.68340000  0.03980000  1.0
  H  H107  1  0.25360000  0.73410000  0.10050000  1.0
  H  H108  1  0.85690000  0.91780000  0.24200000  1.0
  H  H109  1  0.70360000  0.99080000  0.20710000  1.0
  H  H110  1  0.73090000  0.00210000  0.13290000  1.0
  H  H111  1  0.06650000  0.86780000  0.12710000  1.0
  H  H112  1  0.45620000  0.87000000  0.17140000  1.0
  H  H113  1  0.38400000  0.92000000  0.11010000  1.0
  H  H114  1  0.67440000  0.81660000  0.03980000  1.0
  H  H115  1  0.74640000  0.76590000  0.10050000  1.0
  H  H116  1  0.14310000  0.58220000  0.24200000  1.0
  H  H117  1  0.29640000  0.50920000  0.20710000  1.0
  H  H118  1  0.26910000  0.49790000  0.13290000  1.0
  H  H119  1  0.93350000  0.63220000  0.12710000  1.0
  H  H120  1  0.95620000  0.37000000  0.67140000  1.0
  H  H121  1  0.88400000  0.42000000  0.61010000  1.0
  H  H122  1  0.17440000  0.31660000  0.53980000  1.0
  H  H123  1  0.24640000  0.26590000  0.60050000  1.0
  H  H124  1  0.64310000  0.08220000  0.74200000  1.0
  H  H125  1  0.79640000  0.00920000  0.70710000  1.0
  H  H126  1  0.76910000  0.99790000  0.63290000  1.0
  H  H127  1  0.43350000  0.13220000  0.62710000  1.0
  H  H128  1  0.95620000  0.63000000  0.82860000  1.0
  H  H129  1  0.88400000  0.58000000  0.88990000  1.0
  H  H130  1  0.17440000  0.68340000  0.96020000  1.0
  H  H131  1  0.24640000  0.73410000  0.89950000  1.0
  H  H132  1  0.64310000  0.91780000  0.75800000  1.0
  H  H133  1  0.79640000  0.99080000  0.79290000  1.0
  H  H134  1  0.76910000  0.00210000  0.86710000  1.0
  H  H135  1  0.43350000  0.86780000  0.87290000  1.0
  H  H136  1  0.45620000  0.13000000  0.32860000  1.0
  H  H137  1  0.38400000  0.08000000  0.38990000  1.0
  H  H138  1  0.67440000  0.18340000  0.46020000  1.0
  H  H139  1  0.74640000  0.23410000  0.39950000  1.0
  H  H140  1  0.14310000  0.41780000  0.25800000  1.0
  H  H141  1  0.29640000  0.49080000  0.29290000  1.0
  H  H142  1  0.26910000  0.50210000  0.36710000  1.0
  H  H143  1  0.93350000  0.36780000  0.37290000  1.0
  H  H144  1  0.54380000  0.37000000  0.32860000  1.0
  H  H145  1  0.61600000  0.42000000  0.38990000  1.0
  H  H146  1  0.32560000  0.31660000  0.46020000  1.0
  H  H147  1  0.25360000  0.26590000  0.39950000  1.0
  H  H148  1  0.85690000  0.08220000  0.25800000  1.0
  H  H149  1  0.70360000  0.00920000  0.29290000  1.0
  H  H150  1  0.73090000  0.99790000  0.36710000  1.0
  H  H151  1  0.06650000  0.13220000  0.37290000  1.0
  H  H152  1  0.04380000  0.87000000  0.82860000  1.0
  H  H153  1  0.11600000  0.92000000  0.88990000  1.0
  H  H154  1  0.82560000  0.81660000  0.96020000  1.0
  H  H155  1  0.75360000  0.76590000  0.89950000  1.0
  H  H156  1  0.35690000  0.58220000  0.75800000  1.0
  H  H157  1  0.20360000  0.50920000  0.79290000  1.0
  H  H158  1  0.23090000  0.49790000  0.86710000  1.0
  H  H159  1  0.56650000  0.63220000  0.87290000  1.0
  C  C160  1  0.00330000  0.85824000  0.35575000  1.0
  C  C161  1  0.96070000  0.88820000  0.39250000  1.0
  C  C162  1  0.12810000  0.82840000  0.43294000  1.0
  C  C163  1  0.17140000  0.79810000  0.39676000  1.0
  C  C164  1  0.43120000  0.66370000  0.29035000  1.0
  C  C165  1  0.52450000  0.61473000  0.31207000  1.0
  C  C166  1  0.63170000  0.57780000  0.28845000  1.0
  C  C167  1  0.72270000  0.53420000  0.30917000  1.0
  C  C168  1  0.70570000  0.52750000  0.35312000  1.0
  C  C169  1  0.59670000  0.56331000  0.37764000  1.0
  C  C170  1  0.50710000  0.60719000  0.35659000  1.0
  C  C171  1  0.57290000  0.55400000  0.42550000  1.0
  C  C172  1  0.50330000  0.35824000  0.85575000  1.0
  C  C173  1  0.46070000  0.38820000  0.89250000  1.0
  C  C174  1  0.62810000  0.32840000  0.93294000  1.0
  C  C175  1  0.67140000  0.29810000  0.89676000  1.0
  C  C176  1  0.93120000  0.16370000  0.79035000  1.0
  C  C177  1  0.02450000  0.11473000  0.81207000  1.0
  C  C178  1  0.13170000  0.07780000  0.78845000  1.0
  C  C179  1  0.22270000  0.03420000  0.80917000  1.0
  C  C180  1  0.20570000  0.02750000  0.85312000  1.0
  C  C181  1  0.09670000  0.06331000  0.87764000  1.0
  C  C182  1  0.00710000  0.10719000  0.85659000  1.0
  C  C183  1  0.07290000  0.05400000  0.92550000  1.0
  C  C184  1  0.49670000  0.14176000  0.85575000  1.0
  C  C185  1  0.53930000  0.11180000  0.89250000  1.0
  C  C186  1  0.37190000  0.17160000  0.93294000  1.0
  C  C187  1  0.32860000  0.20190000  0.89676000  1.0
  C  C188  1  0.06880000  0.33630000  0.79035000  1.0
  C  C189  1  0.97550000  0.38527000  0.81207000  1.0
  C  C190  1  0.86830000  0.42220000  0.78845000  1.0
  C  C191  1  0.77730000  0.46580000  0.80917000  1.0
  C  C192  1  0.79430000  0.47250000  0.85312000  1.0
  C  C193  1  0.90330000  0.43669000  0.87764000  1.0
  C  C194  1  0.99290000  0.39281000  0.85659000  1.0
  C  C195  1  0.92710000  0.44600000  0.92550000  1.0
  C  C196  1  0.99670000  0.64176000  0.35575000  1.0
  C  C197  1  0.03930000  0.61180000  0.39250000  1.0
  C  C198  1  0.87190000  0.67160000  0.43294000  1.0
  C  C199  1  0.82860000  0.70190000  0.39676000  1.0
  C  C200  1  0.56880000  0.83630000  0.29035000  1.0
  C  C201  1  0.47550000  0.88527000  0.31207000  1.0
  C  C202  1  0.36830000  0.92220000  0.28845000  1.0
  C  C203  1  0.27730000  0.96580000  0.30917000  1.0
  C  C204  1  0.29430000  0.97250000  0.35312000  1.0
  C  C205  1  0.40330000  0.93669000  0.37764000  1.0
  C  C206  1  0.49290000  0.89281000  0.35659000  1.0
  C  C207  1  0.42710000  0.94600000  0.42550000  1.0
  C  C208  1  0.99670000  0.35824000  0.14425000  1.0
  C  C209  1  0.03930000  0.38820000  0.10750000  1.0
  C  C210  1  0.87190000  0.32840000  0.06706000  1.0
  C  C211  1  0.82860000  0.29810000  0.10324000  1.0
  C  C212  1  0.56880000  0.16370000  0.20965000  1.0
  C  C213  1  0.47550000  0.11473000  0.18793000  1.0
  C  C214  1  0.36830000  0.07780000  0.21155000  1.0
  C  C215  1  0.27730000  0.03420000  0.19083000  1.0
  C  C216  1  0.29430000  0.02750000  0.14688000  1.0
  C  C217  1  0.40330000  0.06331000  0.12236000  1.0
  C  C218  1  0.49290000  0.10719000  0.14341000  1.0
  C  C219  1  0.42710000  0.05400000  0.07450000  1.0
  C  C220  1  0.49670000  0.85824000  0.64425000  1.0
  C  C221  1  0.53930000  0.88820000  0.60750000  1.0
  C  C222  1  0.37190000  0.82840000  0.56706000  1.0
  C  C223  1  0.32860000  0.79810000  0.60324000  1.0
  C  C224  1  0.06880000  0.66370000  0.70965000  1.0
  C  C225  1  0.97550000  0.61473000  0.68793000  1.0
  C  C226  1  0.86830000  0.57780000  0.71155000  1.0
  C  C227  1  0.77730000  0.53420000  0.69083000  1.0
  C  C228  1  0.79430000  0.52750000  0.64688000  1.0
  C  C229  1  0.90330000  0.56331000  0.62236000  1.0
  C  C230  1  0.99290000  0.60719000  0.64341000  1.0
  C  C231  1  0.92710000  0.55400000  0.57450000  1.0
  C  C232  1  0.50330000  0.64176000  0.64425000  1.0
  C  C233  1  0.46070000  0.61180000  0.60750000  1.0
  C  C234  1  0.62810000  0.67160000  0.56706000  1.0
  C  C235  1  0.67140000  0.70190000  0.60324000  1.0
  C  C236  1  0.93120000  0.83630000  0.70965000  1.0
  C  C237  1  0.02450000  0.88527000  0.68793000  1.0
  C  C238  1  0.13170000  0.92220000  0.71155000  1.0
  C  C239  1  0.22270000  0.96580000  0.69083000  1.0
  C  C240  1  0.20570000  0.97250000  0.64688000  1.0
  C  C241  1  0.09670000  0.93669000  0.62236000  1.0
  C  C242  1  0.00710000  0.89281000  0.64341000  1.0
  C  C243  1  0.07290000  0.94600000  0.57450000  1.0
  C  C244  1  0.00330000  0.14176000  0.14425000  1.0
  C  C245  1  0.96070000  0.11180000  0.10750000  1.0
  C  C246  1  0.12810000  0.17160000  0.06706000  1.0
  C  C247  1  0.17140000  0.20190000  0.10324000  1.0
  C  C248  1  0.43120000  0.33630000  0.20965000  1.0
  C  C249  1  0.52450000  0.38527000  0.18793000  1.0
  C  C250  1  0.63170000  0.42220000  0.21155000  1.0
  C  C251  1  0.72270000  0.46580000  0.19083000  1.0
  C  C252  1  0.70570000  0.47250000  0.14688000  1.0
  C  C253  1  0.59670000  0.43669000  0.12236000  1.0
  C  C254  1  0.50710000  0.39281000  0.14341000  1.0
  C  C255  1  0.57290000  0.44600000  0.07450000  1.0
  C  C256  1  0.99670000  0.14176000  0.64425000  1.0
  C  C257  1  0.03930000  0.11180000  0.60750000  1.0
  C  C258  1  0.87190000  0.17160000  0.56706000  1.0
  C  C259  1  0.82860000  0.20190000  0.60324000  1.0
  C  C260  1  0.56880000  0.33630000  0.70965000  1.0
  C  C261  1  0.47550000  0.38527000  0.68793000  1.0
  C  C262  1  0.36830000  0.42220000  0.71155000  1.0
  C  C263  1  0.27730000  0.46580000  0.69083000  1.0
  C  C264  1  0.29430000  0.47250000  0.64688000  1.0
  C  C265  1  0.40330000  0.43669000  0.62236000  1.0
  C  C266  1  0.49290000  0.39281000  0.64341000  1.0
  C  C267  1  0.42710000  0.44600000  0.57450000  1.0
  C  C268  1  0.49670000  0.64176000  0.14425000  1.0
  C  C269  1  0.53930000  0.61180000  0.10750000  1.0
  C  C270  1  0.37190000  0.67160000  0.06706000  1.0
  C  C271  1  0.32860000  0.70190000  0.10324000  1.0
  C  C272  1  0.06880000  0.83630000  0.20965000  1.0
  C  C273  1  0.97550000  0.88527000  0.18793000  1.0
  C  C274  1  0.86830000  0.92220000  0.21155000  1.0
  C  C275  1  0.77730000  0.96580000  0.19083000  1.0
  C  C276  1  0.79430000  0.97250000  0.14688000  1.0
  C  C277  1  0.90330000  0.93669000  0.12236000  1.0
  C  C278  1  0.99290000  0.89281000  0.14341000  1.0
  C  C279  1  0.92710000  0.94600000  0.07450000  1.0
  C  C280  1  0.50330000  0.85824000  0.14425000  1.0
  C  C281  1  0.46070000  0.88820000  0.10750000  1.0
  C  C282  1  0.62810000  0.82840000  0.06706000  1.0
  C  C283  1  0.67140000  0.79810000  0.10324000  1.0
  C  C284  1  0.93120000  0.66370000  0.20965000  1.0
  C  C285  1  0.02450000  0.61473000  0.18793000  1.0
  C  C286  1  0.13170000  0.57780000  0.21155000  1.0
  C  C287  1  0.22270000  0.53420000  0.19083000  1.0
  C  C288  1  0.20570000  0.52750000  0.14688000  1.0
  C  C289  1  0.09670000  0.56331000  0.12236000  1.0
  C  C290  1  0.00710000  0.60719000  0.14341000  1.0
  C  C291  1  0.07290000  0.55400000  0.07450000  1.0
  C  C292  1  0.00330000  0.35824000  0.64425000  1.0
  C  C293  1  0.96070000  0.38820000  0.60750000  1.0
  C  C294  1  0.12810000  0.32840000  0.56706000  1.0
  C  C295  1  0.17140000  0.29810000  0.60324000  1.0
  C  C296  1  0.43120000  0.16370000  0.70965000  1.0
  C  C297  1  0.52450000  0.11473000  0.68793000  1.0
  C  C298  1  0.63170000  0.07780000  0.71155000  1.0
  C  C299  1  0.72270000  0.03420000  0.69083000  1.0
  C  C300  1  0.70570000  0.02750000  0.64688000  1.0
  C  C301  1  0.59670000  0.06331000  0.62236000  1.0
  C  C302  1  0.50710000  0.10719000  0.64341000  1.0
  C  C303  1  0.57290000  0.05400000  0.57450000  1.0
  C  C304  1  0.00330000  0.64176000  0.85575000  1.0
  C  C305  1  0.96070000  0.61180000  0.89250000  1.0
  C  C306  1  0.12810000  0.67160000  0.93294000  1.0
  C  C307  1  0.17140000  0.70190000  0.89676000  1.0
  C  C308  1  0.43120000  0.83630000  0.79035000  1.0
  C  C309  1  0.52450000  0.88527000  0.81207000  1.0
  C  C310  1  0.63170000  0.92220000  0.78845000  1.0
  C  C311  1  0.72270000  0.96580000  0.80917000  1.0
  C  C312  1  0.70570000  0.97250000  0.85312000  1.0
  C  C313  1  0.59670000  0.93669000  0.87764000  1.0
  C  C314  1  0.50710000  0.89281000  0.85659000  1.0
  C  C315  1  0.57290000  0.94600000  0.92550000  1.0
  C  C316  1  0.50330000  0.14176000  0.35575000  1.0
  C  C317  1  0.46070000  0.11180000  0.39250000  1.0
  C  C318  1  0.62810000  0.17160000  0.43294000  1.0
  C  C319  1  0.67140000  0.20190000  0.39676000  1.0
  C  C320  1  0.93120000  0.33630000  0.29035000  1.0
  C  C321  1  0.02450000  0.38527000  0.31207000  1.0
  C  C322  1  0.13170000  0.42220000  0.28845000  1.0
  C  C323  1  0.22270000  0.46580000  0.30917000  1.0
  C  C324  1  0.20570000  0.47250000  0.35312000  1.0
  C  C325  1  0.09670000  0.43669000  0.37764000  1.0
  C  C326  1  0.00710000  0.39281000  0.35659000  1.0
  C  C327  1  0.07290000  0.44600000  0.42550000  1.0
  C  C328  1  0.49670000  0.35824000  0.35575000  1.0
  C  C329  1  0.53930000  0.38820000  0.39250000  1.0
  C  C330  1  0.37190000  0.32840000  0.43294000  1.0
  C  C331  1  0.32860000  0.29810000  0.39676000  1.0
  C  C332  1  0.06880000  0.16370000  0.29035000  1.0
  C  C333  1  0.97550000  0.11473000  0.31207000  1.0
  C  C334  1  0.86830000  0.07780000  0.28845000  1.0
  C  C335  1  0.77730000  0.03420000  0.30917000  1.0
  C  C336  1  0.79430000  0.02750000  0.35312000  1.0
  C  C337  1  0.90330000  0.06331000  0.37764000  1.0
  C  C338  1  0.99290000  0.10719000  0.35659000  1.0
  C  C339  1  0.92710000  0.05400000  0.42550000  1.0
  C  C340  1  0.99670000  0.85824000  0.85575000  1.0
  C  C341  1  0.03930000  0.88820000  0.89250000  1.0
  C  C342  1  0.87190000  0.82840000  0.93294000  1.0
  C  C343  1  0.82860000  0.79810000  0.89676000  1.0
  C  C344  1  0.56880000  0.66370000  0.79035000  1.0
  C  C345  1  0.47550000  0.61473000  0.81207000  1.0
  C  C346  1  0.36830000  0.57780000  0.78845000  1.0
  C  C347  1  0.27730000  0.53420000  0.80917000  1.0
  C  C348  1  0.29430000  0.52750000  0.85312000  1.0
  C  C349  1  0.40330000  0.56331000  0.87764000  1.0
  C  C350  1  0.49290000  0.60719000  0.85659000  1.0
  C  C351  1  0.42710000  0.55400000  0.92550000  1.0
  N  N352  1  0.11000000  0.81285000  0.35761000  1.0
  N  N353  1  0.02270000  0.87410000  0.43130000  1.0
  N  N354  1  0.61000000  0.31285000  0.85761000  1.0
  N  N355  1  0.52270000  0.37410000  0.93130000  1.0
  N  N356  1  0.39000000  0.18715000  0.85761000  1.0
  N  N357  1  0.47730000  0.12590000  0.93130000  1.0
  N  N358  1  0.89000000  0.68715000  0.35761000  1.0
  N  N359  1  0.97730000  0.62590000  0.43130000  1.0
  N  N360  1  0.89000000  0.31285000  0.14239000  1.0
  N  N361  1  0.97730000  0.37410000  0.06870000  1.0
  N  N362  1  0.39000000  0.81285000  0.64239000  1.0
  N  N363  1  0.47730000  0.87410000  0.56870000  1.0
  N  N364  1  0.61000000  0.68715000  0.64239000  1.0
  N  N365  1  0.52270000  0.62590000  0.56870000  1.0
  N  N366  1  0.11000000  0.18715000  0.14239000  1.0
  N  N367  1  0.02270000  0.12590000  0.06870000  1.0
  N  N368  1  0.89000000  0.18715000  0.64239000  1.0
  N  N369  1  0.97730000  0.12590000  0.56870000  1.0
  N  N370  1  0.39000000  0.68715000  0.14239000  1.0
  N  N371  1  0.47730000  0.62590000  0.06870000  1.0
  N  N372  1  0.61000000  0.81285000  0.14239000  1.0
  N  N373  1  0.52270000  0.87410000  0.06870000  1.0
  N  N374  1  0.11000000  0.31285000  0.64239000  1.0
  N  N375  1  0.02270000  0.37410000  0.56870000  1.0
  N  N376  1  0.11000000  0.68715000  0.85761000  1.0
  N  N377  1  0.02270000  0.62590000  0.93130000  1.0
  N  N378  1  0.61000000  0.18715000  0.35761000  1.0
  N  N379  1  0.52270000  0.12590000  0.43130000  1.0
  N  N380  1  0.39000000  0.31285000  0.35761000  1.0
  N  N381  1  0.47730000  0.37410000  0.43130000  1.0
  N  N382  1  0.89000000  0.81285000  0.85761000  1.0
  N  N383  1  0.97730000  0.87410000  0.93130000  1.0
  O  O384  1  0.34090000  0.69581000  0.31393000  1.0
  O  O385  1  0.45080000  0.66791000  0.24989000  1.0
  O  O386  1  0.47460000  0.58778000  0.44631000  1.0
  O  O387  1  0.65170000  0.51231000  0.44193000  1.0
  O  O388  1  0.84090000  0.19581000  0.81393000  1.0
  O  O389  1  0.95080000  0.16791000  0.74989000  1.0
  O  O390  1  0.97460000  0.08778000  0.94631000  1.0
  O  O391  1  0.15170000  0.01231000  0.94193000  1.0
  O  O392  1  0.15910000  0.30419000  0.81393000  1.0
  O  O393  1  0.04920000  0.33209000  0.74989000  1.0
  O  O394  1  0.02540000  0.41222000  0.94631000  1.0
  O  O395  1  0.84830000  0.48769000  0.94193000  1.0
  O  O396  1  0.65910000  0.80419000  0.31393000  1.0
  O  O397  1  0.54920000  0.83209000  0.24989000  1.0
  O  O398  1  0.52540000  0.91222000  0.44631000  1.0
  O  O399  1  0.34830000  0.98769000  0.44193000  1.0
  O  O400  1  0.65910000  0.19581000  0.18607000  1.0
  O  O401  1  0.54920000  0.16791000  0.25011000  1.0
  O  O402  1  0.52540000  0.08778000  0.05369000  1.0
  O  O403  1  0.34830000  0.01231000  0.05807000  1.0
  O  O404  1  0.15910000  0.69581000  0.68607000  1.0
  O  O405  1  0.04920000  0.66791000  0.75011000  1.0
  O  O406  1  0.02540000  0.58778000  0.55369000  1.0
  O  O407  1  0.84830000  0.51231000  0.55807000  1.0
  O  O408  1  0.84090000  0.80419000  0.68607000  1.0
  O  O409  1  0.95080000  0.83209000  0.75011000  1.0
  O  O410  1  0.97460000  0.91222000  0.55369000  1.0
  O  O411  1  0.15170000  0.98769000  0.55807000  1.0
  O  O412  1  0.34090000  0.30419000  0.18607000  1.0
  O  O413  1  0.45080000  0.33209000  0.25011000  1.0
  O  O414  1  0.47460000  0.41222000  0.05369000  1.0
  O  O415  1  0.65170000  0.48769000  0.05807000  1.0
  O  O416  1  0.65910000  0.30419000  0.68607000  1.0
  O  O417  1  0.54920000  0.33209000  0.75011000  1.0
  O  O418  1  0.52540000  0.41222000  0.55369000  1.0
  O  O419  1  0.34830000  0.48769000  0.55807000  1.0
  O  O420  1  0.15910000  0.80419000  0.18607000  1.0
  O  O421  1  0.04920000  0.83209000  0.25011000  1.0
  O  O422  1  0.02540000  0.91222000  0.05369000  1.0
  O  O423  1  0.84830000  0.98769000  0.05807000  1.0
  O  O424  1  0.84090000  0.69581000  0.18607000  1.0
  O  O425  1  0.95080000  0.66791000  0.25011000  1.0
  O  O426  1  0.97460000  0.58778000  0.05369000  1.0
  O  O427  1  0.15170000  0.51231000  0.05807000  1.0
  O  O428  1  0.34090000  0.19581000  0.68607000  1.0
  O  O429  1  0.45080000  0.16791000  0.75011000  1.0
  O  O430  1  0.47460000  0.08778000  0.55369000  1.0
  O  O431  1  0.65170000  0.01231000  0.55807000  1.0
  O  O432  1  0.34090000  0.80419000  0.81393000  1.0
  O  O433  1  0.45080000  0.83209000  0.74989000  1.0
  O  O434  1  0.47460000  0.91222000  0.94631000  1.0
  O  O435  1  0.65170000  0.98769000  0.94193000  1.0
  O  O436  1  0.84090000  0.30419000  0.31393000  1.0
  O  O437  1  0.95080000  0.33209000  0.24989000  1.0
  O  O438  1  0.97460000  0.41222000  0.44631000  1.0
  O  O439  1  0.15170000  0.48769000  0.44193000  1.0
  O  O440  1  0.15910000  0.19581000  0.31393000  1.0
  O  O441  1  0.04920000  0.16791000  0.24989000  1.0
  O  O442  1  0.02540000  0.08778000  0.44631000  1.0
  O  O443  1  0.84830000  0.01231000  0.44193000  1.0
  O  O444  1  0.65910000  0.69581000  0.81393000  1.0
  O  O445  1  0.54920000  0.66791000  0.74989000  1.0
  O  O446  1  0.52540000  0.58778000  0.94631000  1.0
  O  O447  1  0.34830000  0.51231000  0.94193000  1.0
