# generated using pymatgen
data_CsUPH4C7O6
_symmetry_space_group_name_H-M   'P 1'
_cell_length_a   11.95630000
_cell_length_b   20.52250000
_cell_length_c   22.05560000
_cell_angle_alpha   90.00000000
_cell_angle_beta   90.00000000
_cell_angle_gamma   90.00000000
_symmetry_Int_Tables_number   1
_chemical_formula_structural   CsUPH4C7O6
_chemical_formula_sum   'Cs12 U12 P12 H48 C84 O72'
_cell_volume   5411.85241657
_cell_formula_units_Z   12
loop_
 _symmetry_equiv_pos_site_id
 _symmetry_equiv_pos_as_xyz
  1  'x, y, z'
loop_
 _atom_site_type_symbol
 _atom_site_label
 _atom_site_symmetry_multiplicity
 _atom_site_fract_x
 _atom_site_fract_y
 _atom_site_fract_z
 _atom_site_occupancy
  Cs  Cs0  1  0.76235000  0.91968000  0.54010000  1.0
  Cs  Cs1  1  0.26235000  0.08032000  0.95990000  1.0
  Cs  Cs2  1  0.23765000  0.41968000  0.45990000  1.0
  Cs  Cs3  1  0.73765000  0.58032000  0.04010000  1.0
  Cs  Cs4  1  0.23765000  0.08032000  0.45990000  1.0
  Cs  Cs5  1  0.73765000  0.91968000  0.04010000  1.0
  Cs  Cs6  1  0.76235000  0.58032000  0.54010000  1.0
  Cs  Cs7  1  0.26235000  0.41968000  0.95990000  1.0
  Cs  Cs8  1  0.99753000  0.75000000  0.65513000  1.0
  Cs  Cs9  1  0.49753000  0.25000000  0.84487000  1.0
  Cs  Cs10  1  0.00247000  0.25000000  0.34487000  1.0
  Cs  Cs11  1  0.50247000  0.75000000  0.15513000  1.0
  U  U12  1  0.14023000  0.91681000  0.57242000  1.0
  U  U13  1  0.64023000  0.08319000  0.92758000  1.0
  U  U14  1  0.85977000  0.41681000  0.42758000  1.0
  U  U15  1  0.35977000  0.58319000  0.07242000  1.0
  U  U16  1  0.85977000  0.08319000  0.42758000  1.0
  U  U17  1  0.35977000  0.91681000  0.07242000  1.0
  U  U18  1  0.14023000  0.58319000  0.57242000  1.0
  U  U19  1  0.64023000  0.41681000  0.92758000  1.0
  U  U20  1  0.91039000  0.75000000  0.44008000  1.0
  U  U21  1  0.41039000  0.25000000  0.05992000  1.0
  U  U22  1  0.08961000  0.25000000  0.55992000  1.0
  U  U23  1  0.58961000  0.75000000  0.94008000  1.0
  P  P24  1  0.00030000  0.92230000  0.42710000  1.0
  P  P25  1  0.50030000  0.07770000  0.07290000  1.0
  P  P26  1  0.99970000  0.42230000  0.57290000  1.0
  P  P27  1  0.49970000  0.57770000  0.92710000  1.0
  P  P28  1  0.99970000  0.07770000  0.57290000  1.0
  P  P29  1  0.49970000  0.92230000  0.92710000  1.0
  P  P30  1  0.00030000  0.57770000  0.42710000  1.0
  P  P31  1  0.50030000  0.42230000  0.07290000  1.0
  P  P32  1  0.18020000  0.75000000  0.50499000  1.0
  P  P33  1  0.68020000  0.25000000  0.99501000  1.0
  P  P34  1  0.81980000  0.25000000  0.49501000  1.0
  P  P35  1  0.31980000  0.75000000  0.00499000  1.0
  H  H36  1  0.34180000  0.84860000  0.47090000  1.0
  H  H37  1  0.52990000  0.84960000  0.44570000  1.0
  H  H38  1  0.02720000  0.00620000  0.32470000  1.0
  H  H39  1  0.13530000  0.00490000  0.23630000  1.0
  H  H40  1  0.23450000  0.82010000  0.27790000  1.0
  H  H41  1  0.13370000  0.82550000  0.36780000  1.0
  H  H42  1  0.84180000  0.15140000  0.02910000  1.0
  H  H43  1  0.02990000  0.15040000  0.05430000  1.0
  H  H44  1  0.52720000  0.99380000  0.17530000  1.0
  H  H45  1  0.63530000  0.99510000  0.26370000  1.0
  H  H46  1  0.73450000  0.17990000  0.22210000  1.0
  H  H47  1  0.63370000  0.17450000  0.13220000  1.0
  H  H48  1  0.65820000  0.34860000  0.52910000  1.0
  H  H49  1  0.47010000  0.34960000  0.55430000  1.0
  H  H50  1  0.97280000  0.50620000  0.67530000  1.0
  H  H51  1  0.86470000  0.50490000  0.76370000  1.0
  H  H52  1  0.76550000  0.32010000  0.72210000  1.0
  H  H53  1  0.86630000  0.32550000  0.63220000  1.0
  H  H54  1  0.15820000  0.65140000  0.97090000  1.0
  H  H55  1  0.97010000  0.65040000  0.94570000  1.0
  H  H56  1  0.47280000  0.49380000  0.82470000  1.0
  H  H57  1  0.36470000  0.49510000  0.73630000  1.0
  H  H58  1  0.26550000  0.67990000  0.77790000  1.0
  H  H59  1  0.36630000  0.67450000  0.86780000  1.0
  H  H60  1  0.65820000  0.15140000  0.52910000  1.0
  H  H61  1  0.47010000  0.15040000  0.55430000  1.0
  H  H62  1  0.97280000  0.99380000  0.67530000  1.0
  H  H63  1  0.86470000  0.99510000  0.76370000  1.0
  H  H64  1  0.76550000  0.17990000  0.72210000  1.0
  H  H65  1  0.86630000  0.17450000  0.63220000  1.0
  H  H66  1  0.15820000  0.84860000  0.97090000  1.0
  H  H67  1  0.97010000  0.84960000  0.94570000  1.0
  H  H68  1  0.47280000  0.00620000  0.82470000  1.0
  H  H69  1  0.36470000  0.00490000  0.73630000  1.0
  H  H70  1  0.26550000  0.82010000  0.77790000  1.0
  H  H71  1  0.36630000  0.82550000  0.86780000  1.0
  H  H72  1  0.34180000  0.65140000  0.47090000  1.0
  H  H73  1  0.52990000  0.65040000  0.44570000  1.0
  H  H74  1  0.02720000  0.49380000  0.32470000  1.0
  H  H75  1  0.13530000  0.49510000  0.23630000  1.0
  H  H76  1  0.23450000  0.67990000  0.27790000  1.0
  H  H77  1  0.13370000  0.67450000  0.36780000  1.0
  H  H78  1  0.84180000  0.34860000  0.02910000  1.0
  H  H79  1  0.02990000  0.34960000  0.05430000  1.0
  H  H80  1  0.52720000  0.50620000  0.17530000  1.0
  H  H81  1  0.63530000  0.50490000  0.26370000  1.0
  H  H82  1  0.73450000  0.32010000  0.22210000  1.0
  H  H83  1  0.63370000  0.32550000  0.13220000  1.0
  C  C84  1  0.38030000  0.80840000  0.46670000  1.0
  C  C85  1  0.49170000  0.80950000  0.45160000  1.0
  C  C86  1  0.07140000  0.91670000  0.35540000  1.0
  C  C87  1  0.07130000  0.96900000  0.31560000  1.0
  C  C88  1  0.13420000  0.96820000  0.26260000  1.0
  C  C89  1  0.19630000  0.91180000  0.24870000  1.0
  C  C90  1  0.19410000  0.85860000  0.28780000  1.0
  C  C91  1  0.13330000  0.86160000  0.34080000  1.0
  C  C92  1  0.26650000  0.91110000  0.19160000  1.0
  C  C93  1  0.88030000  0.19160000  0.03330000  1.0
  C  C94  1  0.99170000  0.19050000  0.04840000  1.0
  C  C95  1  0.57140000  0.08330000  0.14460000  1.0
  C  C96  1  0.57130000  0.03100000  0.18440000  1.0
  C  C97  1  0.63420000  0.03180000  0.23740000  1.0
  C  C98  1  0.69630000  0.08820000  0.25130000  1.0
  C  C99  1  0.69410000  0.14140000  0.21220000  1.0
  C  C100  1  0.63330000  0.13840000  0.15920000  1.0
  C  C101  1  0.76650000  0.08890000  0.30840000  1.0
  C  C102  1  0.61970000  0.30840000  0.53330000  1.0
  C  C103  1  0.50830000  0.30950000  0.54840000  1.0
  C  C104  1  0.92860000  0.41670000  0.64460000  1.0
  C  C105  1  0.92870000  0.46900000  0.68440000  1.0
  C  C106  1  0.86580000  0.46820000  0.73740000  1.0
  C  C107  1  0.80370000  0.41180000  0.75130000  1.0
  C  C108  1  0.80590000  0.35860000  0.71220000  1.0
  C  C109  1  0.86670000  0.36160000  0.65920000  1.0
  C  C110  1  0.73350000  0.41110000  0.80840000  1.0
  C  C111  1  0.11970000  0.69160000  0.96670000  1.0
  C  C112  1  0.00830000  0.69050000  0.95160000  1.0
  C  C113  1  0.42860000  0.58330000  0.85540000  1.0
  C  C114  1  0.42870000  0.53100000  0.81560000  1.0
  C  C115  1  0.36580000  0.53180000  0.76260000  1.0
  C  C116  1  0.30370000  0.58820000  0.74870000  1.0
  C  C117  1  0.30590000  0.64140000  0.78780000  1.0
  C  C118  1  0.36670000  0.63840000  0.84080000  1.0
  C  C119  1  0.23350000  0.58890000  0.69160000  1.0
  C  C120  1  0.61970000  0.19160000  0.53330000  1.0
  C  C121  1  0.50830000  0.19050000  0.54840000  1.0
  C  C122  1  0.92860000  0.08330000  0.64460000  1.0
  C  C123  1  0.92870000  0.03100000  0.68440000  1.0
  C  C124  1  0.86580000  0.03180000  0.73740000  1.0
  C  C125  1  0.80370000  0.08820000  0.75130000  1.0
  C  C126  1  0.80590000  0.14140000  0.71220000  1.0
  C  C127  1  0.86670000  0.13840000  0.65920000  1.0
  C  C128  1  0.73350000  0.08890000  0.80840000  1.0
  C  C129  1  0.11970000  0.80840000  0.96670000  1.0
  C  C130  1  0.00830000  0.80950000  0.95160000  1.0
  C  C131  1  0.42860000  0.91670000  0.85540000  1.0
  C  C132  1  0.42870000  0.96900000  0.81560000  1.0
  C  C133  1  0.36580000  0.96820000  0.76260000  1.0
  C  C134  1  0.30370000  0.91180000  0.74870000  1.0
  C  C135  1  0.30590000  0.85860000  0.78780000  1.0
  C  C136  1  0.36670000  0.86160000  0.84080000  1.0
  C  C137  1  0.23350000  0.91110000  0.69160000  1.0
  C  C138  1  0.38030000  0.69160000  0.46670000  1.0
  C  C139  1  0.49170000  0.69050000  0.45160000  1.0
  C  C140  1  0.07140000  0.58330000  0.35540000  1.0
  C  C141  1  0.07130000  0.53100000  0.31560000  1.0
  C  C142  1  0.13420000  0.53180000  0.26260000  1.0
  C  C143  1  0.19630000  0.58820000  0.24870000  1.0
  C  C144  1  0.19410000  0.64140000  0.28780000  1.0
  C  C145  1  0.13330000  0.63840000  0.34080000  1.0
  C  C146  1  0.26650000  0.58890000  0.19160000  1.0
  C  C147  1  0.88030000  0.30840000  0.03330000  1.0
  C  C148  1  0.99170000  0.30950000  0.04840000  1.0
  C  C149  1  0.57140000  0.41670000  0.14460000  1.0
  C  C150  1  0.57130000  0.46900000  0.18440000  1.0
  C  C151  1  0.63420000  0.46820000  0.23740000  1.0
  C  C152  1  0.69630000  0.41180000  0.25130000  1.0
  C  C153  1  0.69410000  0.35860000  0.21220000  1.0
  C  C154  1  0.63330000  0.36160000  0.15920000  1.0
  C  C155  1  0.76650000  0.41110000  0.30840000  1.0
  C  C156  1  0.32070000  0.75000000  0.47610000  1.0
  C  C157  1  0.54730000  0.75000000  0.44510000  1.0
  C  C158  1  0.66980000  0.75000000  0.43530000  1.0
  C  C159  1  0.82070000  0.25000000  0.02390000  1.0
  C  C160  1  0.04730000  0.25000000  0.05490000  1.0
  C  C161  1  0.16980000  0.25000000  0.06470000  1.0
  C  C162  1  0.67930000  0.25000000  0.52390000  1.0
  C  C163  1  0.45270000  0.25000000  0.55490000  1.0
  C  C164  1  0.33020000  0.25000000  0.56470000  1.0
  C  C165  1  0.17930000  0.75000000  0.97610000  1.0
  C  C166  1  0.95270000  0.75000000  0.94510000  1.0
  C  C167  1  0.83020000  0.75000000  0.93530000  1.0
  O  O168  1  0.00140000  0.89520000  0.59570000  1.0
  O  O169  1  0.16520000  0.81110000  0.54260000  1.0
  O  O170  1  0.72410000  0.80400000  0.43370000  1.0
  O  O171  1  0.09150000  0.93670000  0.47340000  1.0
  O  O172  1  0.91250000  0.97620000  0.42420000  1.0
  O  O173  1  0.94240000  0.85890000  0.44100000  1.0
  O  O174  1  0.28480000  0.85820000  0.16320000  1.0
  O  O175  1  0.30260000  0.96450000  0.17000000  1.0
  O  O176  1  0.50140000  0.10480000  0.90430000  1.0
  O  O177  1  0.66520000  0.18890000  0.95740000  1.0
  O  O178  1  0.22410000  0.19600000  0.06630000  1.0
  O  O179  1  0.59150000  0.06330000  0.02660000  1.0
  O  O180  1  0.41250000  0.02380000  0.07580000  1.0
  O  O181  1  0.44240000  0.14110000  0.05900000  1.0
  O  O182  1  0.78480000  0.14180000  0.33680000  1.0
  O  O183  1  0.80260000  0.03550000  0.33000000  1.0
  O  O184  1  0.99860000  0.39520000  0.40430000  1.0
  O  O185  1  0.83480000  0.31110000  0.45740000  1.0
  O  O186  1  0.27590000  0.30400000  0.56630000  1.0
  O  O187  1  0.90850000  0.43670000  0.52660000  1.0
  O  O188  1  0.08750000  0.47620000  0.57580000  1.0
  O  O189  1  0.05760000  0.35890000  0.55900000  1.0
  O  O190  1  0.71520000  0.35820000  0.83680000  1.0
  O  O191  1  0.69740000  0.46450000  0.83000000  1.0
  O  O192  1  0.49860000  0.60480000  0.09570000  1.0
  O  O193  1  0.33480000  0.68890000  0.04260000  1.0
  O  O194  1  0.77590000  0.69600000  0.93370000  1.0
  O  O195  1  0.40850000  0.56330000  0.97340000  1.0
  O  O196  1  0.58750000  0.52380000  0.92420000  1.0
  O  O197  1  0.55760000  0.64110000  0.94100000  1.0
  O  O198  1  0.21520000  0.64180000  0.66320000  1.0
  O  O199  1  0.19740000  0.53550000  0.67000000  1.0
  O  O200  1  0.99860000  0.10480000  0.40430000  1.0
  O  O201  1  0.83480000  0.18890000  0.45740000  1.0
  O  O202  1  0.27590000  0.19600000  0.56630000  1.0
  O  O203  1  0.90850000  0.06330000  0.52660000  1.0
  O  O204  1  0.08750000  0.02380000  0.57580000  1.0
  O  O205  1  0.05760000  0.14110000  0.55900000  1.0
  O  O206  1  0.71520000  0.14180000  0.83680000  1.0
  O  O207  1  0.69740000  0.03550000  0.83000000  1.0
  O  O208  1  0.49860000  0.89520000  0.09570000  1.0
  O  O209  1  0.33480000  0.81110000  0.04260000  1.0
  O  O210  1  0.77590000  0.80400000  0.93370000  1.0
  O  O211  1  0.40850000  0.93670000  0.97340000  1.0
  O  O212  1  0.58750000  0.97620000  0.92420000  1.0
  O  O213  1  0.55760000  0.85890000  0.94100000  1.0
  O  O214  1  0.21520000  0.85820000  0.66320000  1.0
  O  O215  1  0.19740000  0.96450000  0.67000000  1.0
  O  O216  1  0.00140000  0.60480000  0.59570000  1.0
  O  O217  1  0.16520000  0.68890000  0.54260000  1.0
  O  O218  1  0.72410000  0.69600000  0.43370000  1.0
  O  O219  1  0.09150000  0.56330000  0.47340000  1.0
  O  O220  1  0.91250000  0.52380000  0.42420000  1.0
  O  O221  1  0.94240000  0.64110000  0.44100000  1.0
  O  O222  1  0.28480000  0.64180000  0.16320000  1.0
  O  O223  1  0.30260000  0.53550000  0.17000000  1.0
  O  O224  1  0.50140000  0.39520000  0.90430000  1.0
  O  O225  1  0.66520000  0.31110000  0.95740000  1.0
  O  O226  1  0.22410000  0.30400000  0.06630000  1.0
  O  O227  1  0.59150000  0.43670000  0.02660000  1.0
  O  O228  1  0.41250000  0.47620000  0.07580000  1.0
  O  O229  1  0.44240000  0.35890000  0.05900000  1.0
  O  O230  1  0.78480000  0.35820000  0.33680000  1.0
  O  O231  1  0.80260000  0.46450000  0.33000000  1.0
  O  O232  1  0.89250000  0.75000000  0.52080000  1.0
  O  O233  1  0.10210000  0.75000000  0.45020000  1.0
  O  O234  1  0.39250000  0.25000000  0.97920000  1.0
  O  O235  1  0.60210000  0.25000000  0.04980000  1.0
  O  O236  1  0.10750000  0.25000000  0.47920000  1.0
  O  O237  1  0.89790000  0.25000000  0.54980000  1.0
  O  O238  1  0.60750000  0.75000000  0.02080000  1.0
  O  O239  1  0.39790000  0.75000000  0.95020000  1.0
