# generated using pymatgen
data_Zn9H42C48(N6O13)2
_symmetry_space_group_name_H-M   'P 1'
_cell_length_a   14.34700000
_cell_length_b   14.34700000
_cell_length_c   20.40800000
_cell_angle_alpha   90.00000000
_cell_angle_beta   90.00000000
_cell_angle_gamma   120.00000000
_symmetry_Int_Tables_number   1
_chemical_formula_structural   Zn9H42C48(N6O13)2
_chemical_formula_sum   'Zn18 H84 C96 N24 O52'
_cell_volume   3637.92108452
_cell_formula_units_Z   2
loop_
 _symmetry_equiv_pos_site_id
 _symmetry_equiv_pos_as_xyz
  1  'x, y, z'
loop_
 _atom_site_type_symbol
 _atom_site_label
 _atom_site_symmetry_multiplicity
 _atom_site_fract_x
 _atom_site_fract_y
 _atom_site_fract_z
 _atom_site_occupancy
  Zn  Zn0  1  0.77367000  0.27918000  0.99420000  1.0
  Zn  Zn1  1  0.50551000  0.22633000  0.99420000  1.0
  Zn  Zn2  1  0.72082000  0.49449000  0.99420000  1.0
  Zn  Zn3  1  0.49449000  0.72082000  0.50580000  1.0
  Zn  Zn4  1  0.27918000  0.77367000  0.50580000  1.0
  Zn  Zn5  1  0.22633000  0.50551000  0.50580000  1.0
  Zn  Zn6  1  0.22633000  0.72082000  0.00580000  1.0
  Zn  Zn7  1  0.49449000  0.77367000  0.00580000  1.0
  Zn  Zn8  1  0.27918000  0.50551000  0.00580000  1.0
  Zn  Zn9  1  0.50551000  0.27918000  0.49420000  1.0
  Zn  Zn10  1  0.72082000  0.22633000  0.49420000  1.0
  Zn  Zn11  1  0.77367000  0.49449000  0.49420000  1.0
  Zn  Zn12  1  0.63750000  0.00000000  0.75000000  1.0
  Zn  Zn13  1  0.36250000  0.36250000  0.75000000  1.0
  Zn  Zn14  1  0.00000000  0.63750000  0.75000000  1.0
  Zn  Zn15  1  0.36250000  0.00000000  0.25000000  1.0
  Zn  Zn16  1  0.63750000  0.63750000  0.25000000  1.0
  Zn  Zn17  1  0.00000000  0.36250000  0.25000000  1.0
  H  H18  1  0.60050000  0.98280000  0.12210000  1.0
  H  H19  1  0.69310000  0.10260000  0.11510000  1.0
  H  H20  1  0.76220000  0.99840000  0.16230000  1.0
  H  H21  1  0.72330000  0.92120000  0.10160000  1.0
  H  H22  1  0.85230000  0.06950000  0.03590000  1.0
  H  H23  1  0.90660000  0.03360000  0.08920000  1.0
  H  H24  1  0.89670000  0.13640000  0.10060000  1.0
  H  H25  1  0.38230000  0.39950000  0.12210000  1.0
  H  H26  1  0.40950000  0.30690000  0.11510000  1.0
  H  H27  1  0.23620000  0.23780000  0.16230000  1.0
  H  H28  1  0.19790000  0.27670000  0.10160000  1.0
  H  H29  1  0.21720000  0.14770000  0.03590000  1.0
  H  H30  1  0.12700000  0.09340000  0.08920000  1.0
  H  H31  1  0.23970000  0.10330000  0.10060000  1.0
  H  H32  1  0.01720000  0.61770000  0.12210000  1.0
  H  H33  1  0.89740000  0.59050000  0.11510000  1.0
  H  H34  1  0.00160000  0.76380000  0.16230000  1.0
  H  H35  1  0.07880000  0.80210000  0.10160000  1.0
  H  H36  1  0.93050000  0.78280000  0.03590000  1.0
  H  H37  1  0.96640000  0.87300000  0.08920000  1.0
  H  H38  1  0.86360000  0.76030000  0.10060000  1.0
  H  H39  1  0.61770000  0.01720000  0.37790000  1.0
  H  H40  1  0.59050000  0.89740000  0.38490000  1.0
  H  H41  1  0.76380000  0.00160000  0.33770000  1.0
  H  H42  1  0.80210000  0.07880000  0.39840000  1.0
  H  H43  1  0.78280000  0.93050000  0.46410000  1.0
  H  H44  1  0.87300000  0.96640000  0.41080000  1.0
  H  H45  1  0.76030000  0.86360000  0.39940000  1.0
  H  H46  1  0.98280000  0.60050000  0.37790000  1.0
  H  H47  1  0.10260000  0.69310000  0.38490000  1.0
  H  H48  1  0.99840000  0.76220000  0.33770000  1.0
  H  H49  1  0.92120000  0.72330000  0.39840000  1.0
  H  H50  1  0.06950000  0.85230000  0.46410000  1.0
  H  H51  1  0.03360000  0.90660000  0.41080000  1.0
  H  H52  1  0.13640000  0.89670000  0.39940000  1.0
  H  H53  1  0.39950000  0.38230000  0.37790000  1.0
  H  H54  1  0.30690000  0.40950000  0.38490000  1.0
  H  H55  1  0.23780000  0.23620000  0.33770000  1.0
  H  H56  1  0.27670000  0.19790000  0.39840000  1.0
  H  H57  1  0.14770000  0.21720000  0.46410000  1.0
  H  H58  1  0.09340000  0.12700000  0.41080000  1.0
  H  H59  1  0.10330000  0.23970000  0.39940000  1.0
  H  H60  1  0.39950000  0.01720000  0.87790000  1.0
  H  H61  1  0.30690000  0.89740000  0.88490000  1.0
  H  H62  1  0.23780000  0.00160000  0.83770000  1.0
  H  H63  1  0.27670000  0.07880000  0.89840000  1.0
  H  H64  1  0.14770000  0.93050000  0.96410000  1.0
  H  H65  1  0.09340000  0.96640000  0.91080000  1.0
  H  H66  1  0.10330000  0.86360000  0.89940000  1.0
  H  H67  1  0.61770000  0.60050000  0.87790000  1.0
  H  H68  1  0.59050000  0.69310000  0.88490000  1.0
  H  H69  1  0.76380000  0.76220000  0.83770000  1.0
  H  H70  1  0.80210000  0.72330000  0.89840000  1.0
  H  H71  1  0.78280000  0.85230000  0.96410000  1.0
  H  H72  1  0.87300000  0.90660000  0.91080000  1.0
  H  H73  1  0.76030000  0.89670000  0.89940000  1.0
  H  H74  1  0.98280000  0.38230000  0.87790000  1.0
  H  H75  1  0.10260000  0.40950000  0.88490000  1.0
  H  H76  1  0.99840000  0.23620000  0.83770000  1.0
  H  H77  1  0.92120000  0.19790000  0.89840000  1.0
  H  H78  1  0.06950000  0.21720000  0.96410000  1.0
  H  H79  1  0.03360000  0.12700000  0.91080000  1.0
  H  H80  1  0.13640000  0.23970000  0.89940000  1.0
  H  H81  1  0.38230000  0.98280000  0.62210000  1.0
  H  H82  1  0.40950000  0.10260000  0.61510000  1.0
  H  H83  1  0.23620000  0.99840000  0.66230000  1.0
  H  H84  1  0.19790000  0.92120000  0.60160000  1.0
  H  H85  1  0.21720000  0.06950000  0.53590000  1.0
  H  H86  1  0.12700000  0.03360000  0.58920000  1.0
  H  H87  1  0.23970000  0.13640000  0.60060000  1.0
  H  H88  1  0.01720000  0.39950000  0.62210000  1.0
  H  H89  1  0.89740000  0.30690000  0.61510000  1.0
  H  H90  1  0.00160000  0.23780000  0.66230000  1.0
  H  H91  1  0.07880000  0.27670000  0.60160000  1.0
  H  H92  1  0.93050000  0.14770000  0.53590000  1.0
  H  H93  1  0.96640000  0.09340000  0.58920000  1.0
  H  H94  1  0.86360000  0.10330000  0.60060000  1.0
  H  H95  1  0.60050000  0.61770000  0.62210000  1.0
  H  H96  1  0.69310000  0.59050000  0.61510000  1.0
  H  H97  1  0.76220000  0.76380000  0.66230000  1.0
  H  H98  1  0.72330000  0.80210000  0.60160000  1.0
  H  H99  1  0.85230000  0.78280000  0.53590000  1.0
  H  H100  1  0.90660000  0.87300000  0.58920000  1.0
  H  H101  1  0.89670000  0.76030000  0.60060000  1.0
  C  C102  1  0.52150000  0.88250000  0.87690000  1.0
  C  C103  1  0.69740000  0.16060000  0.86940000  1.0
  C  C104  1  0.64390000  0.02640000  0.02710000  1.0
  C  C105  1  0.58800000  0.96630000  0.92680000  1.0
  C  C106  1  0.65780000  0.07970000  0.92330000  1.0
  C  C107  1  0.66690000  0.03000000  0.09920000  1.0
  C  C108  1  0.75200000  0.99500000  0.11520000  1.0
  C  C109  1  0.86230000  0.06530000  0.08210000  1.0
  C  C110  1  0.36100000  0.47850000  0.87690000  1.0
  C  C111  1  0.46320000  0.30260000  0.86940000  1.0
  C  C112  1  0.38250000  0.35610000  0.02710000  1.0
  C  C113  1  0.37830000  0.41200000  0.92680000  1.0
  C  C114  1  0.42190000  0.34220000  0.92330000  1.0
  C  C115  1  0.36310000  0.33310000  0.09920000  1.0
  C  C116  1  0.24300000  0.24800000  0.11520000  1.0
  C  C117  1  0.20300000  0.13770000  0.08210000  1.0
  C  C118  1  0.11750000  0.63900000  0.87690000  1.0
  C  C119  1  0.83940000  0.53680000  0.86940000  1.0
  C  C120  1  0.97360000  0.61750000  0.02710000  1.0
  C  C121  1  0.03370000  0.62170000  0.92680000  1.0
  C  C122  1  0.92030000  0.57810000  0.92330000  1.0
  C  C123  1  0.97000000  0.63690000  0.09920000  1.0
  C  C124  1  0.00500000  0.75700000  0.11520000  1.0
  C  C125  1  0.93470000  0.79700000  0.08210000  1.0
  C  C126  1  0.63900000  0.11750000  0.62310000  1.0
  C  C127  1  0.53680000  0.83940000  0.63060000  1.0
  C  C128  1  0.61750000  0.97360000  0.47290000  1.0
  C  C129  1  0.62170000  0.03370000  0.57320000  1.0
  C  C130  1  0.57810000  0.92030000  0.57670000  1.0
  C  C131  1  0.63690000  0.97000000  0.40080000  1.0
  C  C132  1  0.75700000  0.00500000  0.38480000  1.0
  C  C133  1  0.79700000  0.93470000  0.41790000  1.0
  C  C134  1  0.88250000  0.52150000  0.62310000  1.0
  C  C135  1  0.16060000  0.69740000  0.63060000  1.0
  C  C136  1  0.02640000  0.64390000  0.47290000  1.0
  C  C137  1  0.96630000  0.58800000  0.57320000  1.0
  C  C138  1  0.07970000  0.65780000  0.57670000  1.0
  C  C139  1  0.03000000  0.66690000  0.40080000  1.0
  C  C140  1  0.99500000  0.75200000  0.38480000  1.0
  C  C141  1  0.06530000  0.86230000  0.41790000  1.0
  C  C142  1  0.47850000  0.36100000  0.62310000  1.0
  C  C143  1  0.30260000  0.46320000  0.63060000  1.0
  C  C144  1  0.35610000  0.38250000  0.47290000  1.0
  C  C145  1  0.41200000  0.37830000  0.57320000  1.0
  C  C146  1  0.34220000  0.42190000  0.57670000  1.0
  C  C147  1  0.33310000  0.36310000  0.40080000  1.0
  C  C148  1  0.24800000  0.24300000  0.38480000  1.0
  C  C149  1  0.13770000  0.20300000  0.41790000  1.0
  C  C150  1  0.47850000  0.11750000  0.12310000  1.0
  C  C151  1  0.30260000  0.83940000  0.13060000  1.0
  C  C152  1  0.35610000  0.97360000  0.97290000  1.0
  C  C153  1  0.41200000  0.03370000  0.07320000  1.0
  C  C154  1  0.34220000  0.92030000  0.07670000  1.0
  C  C155  1  0.33310000  0.97000000  0.90080000  1.0
  C  C156  1  0.24800000  0.00500000  0.88480000  1.0
  C  C157  1  0.13770000  0.93470000  0.91790000  1.0
  C  C158  1  0.63900000  0.52150000  0.12310000  1.0
  C  C159  1  0.53680000  0.69740000  0.13060000  1.0
  C  C160  1  0.61750000  0.64390000  0.97290000  1.0
  C  C161  1  0.62170000  0.58800000  0.07320000  1.0
  C  C162  1  0.57810000  0.65780000  0.07670000  1.0
  C  C163  1  0.63690000  0.66690000  0.90080000  1.0
  C  C164  1  0.75700000  0.75200000  0.88480000  1.0
  C  C165  1  0.79700000  0.86230000  0.91790000  1.0
  C  C166  1  0.88250000  0.36100000  0.12310000  1.0
  C  C167  1  0.16060000  0.46320000  0.13060000  1.0
  C  C168  1  0.02640000  0.38250000  0.97290000  1.0
  C  C169  1  0.96630000  0.37830000  0.07320000  1.0
  C  C170  1  0.07970000  0.42190000  0.07670000  1.0
  C  C171  1  0.03000000  0.36310000  0.90080000  1.0
  C  C172  1  0.99500000  0.24300000  0.88480000  1.0
  C  C173  1  0.06530000  0.20300000  0.91790000  1.0
  C  C174  1  0.36100000  0.88250000  0.37690000  1.0
  C  C175  1  0.46320000  0.16060000  0.36940000  1.0
  C  C176  1  0.38250000  0.02640000  0.52710000  1.0
  C  C177  1  0.37830000  0.96630000  0.42680000  1.0
  C  C178  1  0.42190000  0.07970000  0.42330000  1.0
  C  C179  1  0.36310000  0.03000000  0.59920000  1.0
  C  C180  1  0.24300000  0.99500000  0.61520000  1.0
  C  C181  1  0.20300000  0.06530000  0.58210000  1.0
  C  C182  1  0.11750000  0.47850000  0.37690000  1.0
  C  C183  1  0.83940000  0.30260000  0.36940000  1.0
  C  C184  1  0.97360000  0.35610000  0.52710000  1.0
  C  C185  1  0.03370000  0.41200000  0.42680000  1.0
  C  C186  1  0.92030000  0.34220000  0.42330000  1.0
  C  C187  1  0.97000000  0.33310000  0.59920000  1.0
  C  C188  1  0.00500000  0.24800000  0.61520000  1.0
  C  C189  1  0.93470000  0.13770000  0.58210000  1.0
  C  C190  1  0.52150000  0.63900000  0.37690000  1.0
  C  C191  1  0.69740000  0.53680000  0.36940000  1.0
  C  C192  1  0.64390000  0.61750000  0.52710000  1.0
  C  C193  1  0.58800000  0.62170000  0.42680000  1.0
  C  C194  1  0.65780000  0.57810000  0.42330000  1.0
  C  C195  1  0.66690000  0.63690000  0.59920000  1.0
  C  C196  1  0.75200000  0.75700000  0.61520000  1.0
  C  C197  1  0.86230000  0.79700000  0.58210000  1.0
  N  N198  1  0.68910000  0.11520000  0.98740000  1.0
  N  N199  1  0.58080000  0.93520000  0.99220000  1.0
  N  N200  1  0.42610000  0.31090000  0.98740000  1.0
  N  N201  1  0.35440000  0.41920000  0.99220000  1.0
  N  N202  1  0.88480000  0.57390000  0.98740000  1.0
  N  N203  1  0.06480000  0.64560000  0.99220000  1.0
  N  N204  1  0.57390000  0.88480000  0.51260000  1.0
  N  N205  1  0.64560000  0.06480000  0.50780000  1.0
  N  N206  1  0.11520000  0.68910000  0.51260000  1.0
  N  N207  1  0.93520000  0.58080000  0.50780000  1.0
  N  N208  1  0.31090000  0.42610000  0.51260000  1.0
  N  N209  1  0.41920000  0.35440000  0.50780000  1.0
  N  N210  1  0.31090000  0.88480000  0.01260000  1.0
  N  N211  1  0.41920000  0.06480000  0.00780000  1.0
  N  N212  1  0.57390000  0.68910000  0.01260000  1.0
  N  N213  1  0.64560000  0.58080000  0.00780000  1.0
  N  N214  1  0.11520000  0.42610000  0.01260000  1.0
  N  N215  1  0.93520000  0.35440000  0.00780000  1.0
  N  N216  1  0.42610000  0.11520000  0.48740000  1.0
  N  N217  1  0.35440000  0.93520000  0.49220000  1.0
  N  N218  1  0.88480000  0.31090000  0.48740000  1.0
  N  N219  1  0.06480000  0.41920000  0.49220000  1.0
  N  N220  1  0.68910000  0.57390000  0.48740000  1.0
  N  N221  1  0.58080000  0.64560000  0.49220000  1.0
  O  O222  1  0.45590000  0.78750000  0.90100000  1.0
  O  O223  1  0.52660000  0.90280000  0.81670000  1.0
  O  O224  1  0.76020000  0.26060000  0.88780000  1.0
  O  O225  1  0.67480000  0.13440000  0.81000000  1.0
  O  O226  1  0.33160000  0.54410000  0.90100000  1.0
  O  O227  1  0.37620000  0.47340000  0.81670000  1.0
  O  O228  1  0.50040000  0.23980000  0.88780000  1.0
  O  O229  1  0.45960000  0.32520000  0.81000000  1.0
  O  O230  1  0.21250000  0.66840000  0.90100000  1.0
  O  O231  1  0.09720000  0.62380000  0.81670000  1.0
  O  O232  1  0.73940000  0.49960000  0.88780000  1.0
  O  O233  1  0.86560000  0.54040000  0.81000000  1.0
  O  O234  1  0.66840000  0.21250000  0.59900000  1.0
  O  O235  1  0.62380000  0.09720000  0.68330000  1.0
  O  O236  1  0.49960000  0.73940000  0.61220000  1.0
  O  O237  1  0.54040000  0.86560000  0.69000000  1.0
  O  O238  1  0.78750000  0.45590000  0.59900000  1.0
  O  O239  1  0.90280000  0.52660000  0.68330000  1.0
  O  O240  1  0.26060000  0.76020000  0.61220000  1.0
  O  O241  1  0.13440000  0.67480000  0.69000000  1.0
  O  O242  1  0.54410000  0.33160000  0.59900000  1.0
  O  O243  1  0.47340000  0.37620000  0.68330000  1.0
  O  O244  1  0.23980000  0.50040000  0.61220000  1.0
  O  O245  1  0.32520000  0.45960000  0.69000000  1.0
  O  O246  1  0.54410000  0.21250000  0.09900000  1.0
  O  O247  1  0.47340000  0.09720000  0.18330000  1.0
  O  O248  1  0.23980000  0.73940000  0.11220000  1.0
  O  O249  1  0.32520000  0.86560000  0.19000000  1.0
  O  O250  1  0.66840000  0.45590000  0.09900000  1.0
  O  O251  1  0.62380000  0.52660000  0.18330000  1.0
  O  O252  1  0.49960000  0.76020000  0.11220000  1.0
  O  O253  1  0.54040000  0.67480000  0.19000000  1.0
  O  O254  1  0.78750000  0.33160000  0.09900000  1.0
  O  O255  1  0.90280000  0.37620000  0.18330000  1.0
  O  O256  1  0.26060000  0.50040000  0.11220000  1.0
  O  O257  1  0.13440000  0.45960000  0.19000000  1.0
  O  O258  1  0.33160000  0.78750000  0.40100000  1.0
  O  O259  1  0.37620000  0.90280000  0.31670000  1.0
  O  O260  1  0.50040000  0.26060000  0.38780000  1.0
  O  O261  1  0.45960000  0.13440000  0.31000000  1.0
  O  O262  1  0.21250000  0.54410000  0.40100000  1.0
  O  O263  1  0.09720000  0.47340000  0.31670000  1.0
  O  O264  1  0.73940000  0.23980000  0.38780000  1.0
  O  O265  1  0.86560000  0.32520000  0.31000000  1.0
  O  O266  1  0.45590000  0.66840000  0.40100000  1.0
  O  O267  1  0.52660000  0.62380000  0.31670000  1.0
  O  O268  1  0.76020000  0.49960000  0.38780000  1.0
  O  O269  1  0.67480000  0.54040000  0.31000000  1.0
  O  O270  1  0.66666667  0.33333333  0.97910000  1.0
  O  O271  1  0.33333333  0.66666667  0.52090000  1.0
  O  O272  1  0.33333333  0.66666667  0.02090000  1.0
  O  O273  1  0.66666667  0.33333333  0.47910000  1.0
