# generated using pymatgen
data_Zn3H38C64(NO3)4
_symmetry_space_group_name_H-M   'P 1'
_cell_length_a   10.11700000
_cell_length_b   29.53900000
_cell_length_c   29.55600000
_cell_angle_alpha   91.44600000
_cell_angle_beta   93.32100000
_cell_angle_gamma   91.61500000
_symmetry_Int_Tables_number   1
_chemical_formula_structural   Zn3H38C64(NO3)4
_chemical_formula_sum   'Zn12 H152 C256 N16 O48'
_cell_volume   8811.16316062
_cell_formula_units_Z   4
loop_
 _symmetry_equiv_pos_site_id
 _symmetry_equiv_pos_as_xyz
  1  'x, y, z'
loop_
 _atom_site_type_symbol
 _atom_site_label
 _atom_site_symmetry_multiplicity
 _atom_site_fract_x
 _atom_site_fract_y
 _atom_site_fract_z
 _atom_site_occupancy
  Zn  Zn0  1  0.89940000  0.23206000  0.77574000  1.0
  Zn  Zn1  1  0.25868000  0.40600000  0.59359000  1.0
  Zn  Zn2  1  0.26718000  0.03857000  0.59677000  1.0
  Zn  Zn3  1  0.60471000  0.22766000  0.76648000  1.0
  Zn  Zn4  1  0.23600000  0.40468000  0.96225000  1.0
  Zn  Zn5  1  0.24767000  0.05175000  0.94888000  1.0
  Zn  Zn6  1  0.10060000  0.76794000  0.22425000  1.0
  Zn  Zn7  1  0.74132000  0.59400000  0.40641000  1.0
  Zn  Zn8  1  0.73282000  0.96143000  0.40323000  1.0
  Zn  Zn9  1  0.75233000  0.94825000  0.05112000  1.0
  Zn  Zn10  1  0.76400000  0.59532000  0.03775000  1.0
  Zn  Zn11  1  0.39529000  0.77234000  0.23352000  1.0
  H  H12  1  0.12270000  0.78920000  0.75810000  1.0
  H  H13  1  0.37700000  0.02660000  0.04220000  1.0
  H  H14  1  0.24910000  0.57350000  0.59460000  1.0
  H  H15  1  0.54200000  0.13040000  0.87170000  1.0
  H  H16  1  0.08960000  0.13840000  0.07580000  1.0
  H  H17  1  0.13340000  0.95840000  0.97420000  1.0
  H  H18  1  0.36070000  0.49810000  0.98490000  1.0
  H  H19  1  0.04050000  0.14660000  0.14090000  1.0
  H  H20  1  0.15400000  0.07500000  0.36750000  1.0
  H  H21  1  0.13110000  0.29010000  0.47760000  1.0
  H  H22  1  0.35460000  0.21760000  0.35800000  1.0
  H  H23  1  0.34740000  0.63340000  0.92630000  1.0
  H  H24  1  0.43090000  0.95220000  0.59160000  1.0
  H  H25  1  0.56850000  0.32910000  0.66920000  1.0
  H  H26  1  0.45300000  0.85980000  0.85040000  1.0
  H  H27  1  0.15950000  0.01520000  0.50060000  1.0
  H  H28  1  0.74590000  0.04650000  0.95330000  1.0
  H  H29  1  0.38100000  0.13000000  0.25110000  1.0
  H  H30  1  0.04240000  0.18690000  0.20880000  1.0
  H  H31  1  0.43960000  0.82310000  0.65780000  1.0
  H  H32  1  0.10350000  0.52310000  0.85810000  1.0
  H  H33  1  0.35210000  0.15010000  0.48330000  1.0
  H  H34  1  0.12470000  0.75100000  0.86870000  1.0
  H  H35  1  0.43310000  0.88230000  0.62370000  1.0
  H  H36  1  0.77370000  0.03460000  0.59040000  1.0
  H  H37  1  0.45990000  0.79150000  0.81210000  1.0
  H  H38  1  0.38940000  0.27860000  0.14540000  1.0
  H  H39  1  0.37130000  0.18100000  0.42490000  1.0
  H  H40  1  0.29440000  0.39920000  0.42820000  1.0
  H  H41  1  0.40190000  0.31630000  0.09030000  1.0
  H  H42  1  0.94140000  0.12730000  0.87100000  1.0
  H  H43  1  0.29380000  0.12380000  0.55350000  1.0
  H  H44  1  0.09370000  0.90810000  0.67750000  1.0
  H  H45  1  0.34110000  0.35580000  0.36970000  1.0
  H  H46  1  0.37800000  0.23860000  0.21190000  1.0
  H  H47  1  0.39180000  0.52070000  0.70890000  1.0
  H  H48  1  0.36560000  0.70090000  0.88720000  1.0
  H  H49  1  0.16640000  0.69700000  0.68470000  1.0
  H  H50  1  0.91590000  0.32970000  0.88050000  1.0
  H  H51  1  0.35810000  0.04830000  0.11790000  1.0
  H  H52  1  0.58600000  0.12000000  0.67050000  1.0
  H  H53  1  0.35740000  0.45050000  0.67500000  1.0
  H  H54  1  0.40350000  0.35280000  0.02290000  1.0
  H  H55  1  0.03110000  0.28280000  0.40800000  1.0
  H  H56  1  0.14000000  0.11280000  0.30000000  1.0
  H  H57  1  0.15500000  0.88350000  0.95160000  1.0
  H  H58  1  0.37890000  0.08910000  0.18240000  1.0
  H  H59  1  0.06050000  0.34430000  0.17550000  1.0
  H  H60  1  0.21250000  0.49970000  0.56500000  1.0
  H  H61  1  0.31450000  0.43090000  0.50120000  1.0
  H  H62  1  0.12610000  0.81990000  0.90940000  1.0
  H  H63  1  0.14830000  0.64460000  0.78190000  1.0
  H  H64  1  0.47240000  0.65780000  0.76460000  1.0
  H  H65  1  0.18100000  0.04430000  0.42890000  1.0
  H  H66  1  0.98600000  0.12380000  0.67220000  1.0
  H  H67  1  0.05110000  0.30320000  0.24100000  1.0
  H  H68  1  0.11060000  0.11300000  0.00280000  1.0
  H  H69  1  0.07440000  0.38060000  0.11720000  1.0
  H  H70  1  0.11750000  0.85630000  0.72060000  1.0
  H  H71  1  0.39670000  0.92540000  0.85760000  1.0
  H  H72  1  0.96450000  0.33340000  0.67400000  1.0
  H  H73  1  0.45130000  0.75690000  0.69920000  1.0
  H  H74  1  0.13160000  0.57760000  0.81910000  1.0
  H  H75  1  0.34480000  0.31270000  0.30370000  1.0
  H  H76  1  0.47900000  0.59070000  0.72300000  1.0
  H  H77  1  0.07950000  0.41340000  0.04770000  1.0
  H  H78  1  0.14230000  0.32760000  0.54830000  1.0
  H  H79  1  0.51740000  0.32860000  0.87780000  1.0
  H  H80  1  0.02850000  0.24000000  0.33930000  1.0
  H  H81  1  0.11850000  0.45130000  0.89020000  1.0
  H  H82  1  0.73200000  0.41010000  0.96730000  1.0
  H  H83  1  0.09060000  0.97640000  0.64040000  1.0
  H  H84  1  0.36110000  0.56840000  0.95370000  1.0
  H  H85  1  0.76260000  0.41310000  0.58820000  1.0
  H  H86  1  0.38000000  0.99800000  0.88350000  1.0
  H  H87  1  0.16750000  0.62960000  0.64340000  1.0
  H  H88  1  0.70560000  0.60080000  0.57180000  1.0
  H  H89  1  0.68550000  0.56910000  0.49880000  1.0
  H  H90  1  0.87530000  0.24900000  0.13130000  1.0
  H  H91  1  0.88250000  0.14370000  0.27940000  1.0
  H  H92  1  0.63890000  0.43160000  0.04630000  1.0
  H  H93  1  0.26800000  0.58990000  0.03270000  1.0
  H  H94  1  0.62200000  0.76140000  0.78810000  1.0
  H  H95  1  0.64540000  0.78240000  0.64200000  1.0
  H  H96  1  0.62110000  0.91090000  0.81760000  1.0
  H  H97  1  0.59650000  0.64720000  0.97710000  1.0
  H  H98  1  0.65890000  0.64420000  0.63030000  1.0
  H  H99  1  0.89650000  0.47690000  0.14190000  1.0
  H  H100  1  0.62000000  0.00200000  0.11650000  1.0
  H  H101  1  0.92050000  0.58660000  0.95230000  1.0
  H  H102  1  0.87730000  0.21080000  0.24190000  1.0
  H  H103  1  0.84500000  0.11650000  0.04840000  1.0
  H  H104  1  0.86000000  0.88720000  0.70000000  1.0
  H  H105  1  0.70620000  0.87620000  0.44650000  1.0
  H  H106  1  0.41400000  0.88000000  0.32950000  1.0
  H  H107  1  0.91040000  0.86160000  0.92420000  1.0
  H  H108  1  0.59810000  0.68370000  0.90970000  1.0
  H  H109  1  0.61900000  0.87000000  0.74890000  1.0
  H  H110  1  0.08410000  0.67030000  0.11950000  1.0
  H  H111  1  0.93950000  0.65570000  0.82450000  1.0
  H  H112  1  0.23740000  0.58690000  0.41180000  1.0
  H  H113  1  0.92560000  0.61940000  0.88280000  1.0
  H  H114  1  0.45800000  0.86960000  0.12830000  1.0
  H  H115  1  0.88150000  0.54870000  0.10980000  1.0
  H  H116  1  0.84050000  0.98480000  0.49940000  1.0
  H  H117  1  0.62300000  0.97340000  0.95780000  1.0
  H  H118  1  0.63440000  0.29910000  0.11280000  1.0
  H  H119  1  0.97150000  0.76000000  0.66070000  1.0
  H  H120  1  0.86660000  0.04160000  0.02580000  1.0
  H  H121  1  0.64790000  0.84990000  0.51670000  1.0
  H  H122  1  0.85170000  0.35540000  0.21810000  1.0
  H  H123  1  0.54700000  0.14020000  0.14960000  1.0
  H  H124  1  0.84600000  0.92500000  0.63250000  1.0
  H  H125  1  0.86890000  0.70990000  0.52240000  1.0
  H  H126  1  0.56690000  0.11770000  0.37630000  1.0
  H  H127  1  0.88940000  0.88700000  0.99720000  1.0
  H  H128  1  0.65260000  0.36660000  0.07370000  1.0
  H  H129  1  0.78750000  0.50030000  0.43500000  1.0
  H  H130  1  0.63930000  0.50190000  0.01510000  1.0
  H  H131  1  0.25410000  0.95350000  0.04670000  1.0
  H  H132  1  0.96890000  0.71720000  0.59200000  1.0
  H  H133  1  0.95950000  0.85340000  0.85910000  1.0
  H  H134  1  0.75090000  0.42650000  0.40540000  1.0
  H  H135  1  0.65520000  0.68730000  0.69630000  1.0
  H  H136  1  0.05860000  0.87270000  0.12900000  1.0
  H  H137  1  0.60820000  0.47930000  0.29110000  1.0
  H  H138  1  0.83360000  0.30300000  0.31530000  1.0
  H  H139  1  0.43150000  0.67090000  0.33080000  1.0
  H  H140  1  0.61060000  0.72140000  0.85460000  1.0
  H  H141  1  0.64260000  0.54950000  0.32500000  1.0
  H  H142  1  0.90630000  0.09190000  0.32250000  1.0
  H  H143  1  0.56040000  0.17690000  0.34220000  1.0
  H  H144  1  0.83250000  0.37040000  0.35660000  1.0
  H  H145  1  0.90940000  0.02360000  0.35960000  1.0
  H  H146  1  0.52760000  0.34220000  0.23540000  1.0
  H  H147  1  0.48260000  0.67140000  0.12220000  1.0
  H  H148  1  0.60330000  0.07460000  0.14240000  1.0
  H  H149  1  0.03550000  0.66666667  0.32600000  1.0
  H  H150  1  0.01400000  0.87620000  0.32780000  1.0
  H  H151  1  0.87390000  0.18010000  0.09060000  1.0
  H  H152  1  0.86840000  0.42240000  0.18090000  1.0
  H  H153  1  0.62870000  0.81900000  0.57510000  1.0
  H  H154  1  0.81900000  0.95570000  0.57110000  1.0
  H  H155  1  0.64190000  0.95170000  0.88210000  1.0
  H  H156  1  0.85770000  0.67240000  0.45170000  1.0
  H  H157  1  0.22630000  0.96540000  0.40960000  1.0
  H  H158  1  0.94890000  0.69680000  0.75900000  1.0
  H  H159  1  0.52100000  0.40930000  0.27700000  1.0
  H  H160  1  0.54010000  0.20850000  0.18790000  1.0
  H  H161  1  0.95760000  0.81310000  0.79120000  1.0
  H  H162  1  0.56910000  0.04780000  0.40840000  1.0
  H  H163  1  0.54870000  0.24310000  0.30080000  1.0
  C  C164  1  0.11320000  0.14410000  0.16240000  1.0
  C  C165  1  0.48370000  0.38877000  0.94478000  1.0
  C  C166  1  0.18520000  0.83560000  0.71490000  1.0
  C  C167  1  0.19050000  0.79620000  0.73830000  1.0
  C  C168  1  0.27870000  0.33140000  0.36440000  1.0
  C  C169  1  0.02040000  0.05679000  0.61164000  1.0
  C  C170  1  0.19130000  0.77347000  0.86401000  1.0
  C  C171  1  0.77720000  0.05830000  0.61280000  1.0
  C  C172  1  0.22470000  0.31600000  0.15365000  1.0
  C  C173  1  0.29760000  0.72387000  0.75970000  1.0
  C  C174  1  0.78590000  0.12806000  0.67724000  1.0
  C  C175  1  0.23270000  0.34260000  0.11172000  1.0
  C  C176  1  0.16300000  0.09980000  0.02648000  1.0
  C  C177  1  0.09630000  0.28900000  0.38700000  1.0
  C  C178  1  0.90250000  0.11128000  0.66119000  1.0
  C  C179  1  0.25520000  0.38320000  0.45170000  1.0
  C  C180  1  0.97280000  0.39191000  0.94630000  1.0
  C  C181  1  0.27540000  0.84601000  0.68320000  1.0
  C  C182  1  0.31420000  0.55710000  0.65630000  1.0
  C  C183  1  0.86320000  0.08304000  0.91422000  1.0
  C  C184  1  0.21520000  0.06180000  0.45460000  1.0
  C  C185  1  0.22440000  0.09704000  0.10677000  1.0
  C  C186  1  0.30700000  0.50250000  0.95800000  1.0
  C  C187  1  0.31990000  0.67552000  0.87270000  1.0
  C  C188  1  0.25830000  0.12412000  0.40416000  1.0
  C  C189  1  0.18900000  0.95148000  0.95030000  1.0
  C  C190  1  0.11990000  0.29750000  0.22130000  1.0
  C  C191  1  0.31110000  0.25950000  0.20430000  1.0
  C  C192  1  0.33320000  0.47630000  0.65820000  1.0
  C  C193  1  0.60520000  0.37169000  0.92554000  1.0
  C  C194  1  0.20890000  0.26470000  0.23273000  1.0
  C  C195  1  0.23990000  0.59743000  0.87610000  1.0
  C  C196  1  0.14280000  0.37300000  0.09790000  1.0
  C  C197  1  0.30840000  0.54470000  0.93890000  1.0
  C  C198  1  0.27570000  0.89531000  0.90183000  1.0
  C  C199  1  0.33290000  0.35820000  0.04200000  1.0
  C  C200  1  0.41260000  0.61170000  0.71530000  1.0
  C  C201  1  0.51780000  0.39126000  0.60637000  1.0
  C  C202  1  0.74440000  0.06888000  0.93077000  1.0
  C  C203  1  0.16820000  0.47590000  0.90460000  1.0
  C  C204  1  0.28360000  0.72205000  0.80470000  1.0
  C  C205  1  0.76720000  0.29076000  0.71211000  1.0
  C  C206  1  0.88200000  0.37629000  0.62838000  1.0
  C  C207  1  0.28110000  0.30560000  0.32500000  1.0
  C  C208  1  0.23610000  0.17130000  0.32155000  1.0
  C  C209  1  0.18380000  0.12750000  0.32585000  1.0
  C  C210  1  0.14770000  0.39340000  0.05630000  1.0
  C  C211  1  0.26940000  0.40230000  0.49730000  1.0
  C  C212  1  0.62350000  0.11837000  0.88272000  1.0
  C  C213  1  0.64550000  0.37472000  0.62549000  1.0
  C  C214  1  0.74180000  0.13322000  0.86562000  1.0
  C  C215  1  0.26520000  0.10170000  0.44790000  1.0
  C  C216  1  0.38780000  0.79740000  0.83040000  1.0
  C  C217  1  0.09600000  0.26260000  0.34590000  1.0
  C  C218  1  0.18730000  0.32250000  0.39640000  1.0
  C  C219  1  0.71630000  0.32398000  0.87289000  1.0
  C  C220  1  0.76340000  0.39101000  0.61098000  1.0
  C  C221  1  0.83640000  0.34063000  0.89179000  1.0
  C  C222  1  0.15000000  0.11510000  0.07010000  1.0
  C  C223  1  0.20850000  0.04280000  0.49800000  1.0
  C  C224  1  0.50000000  0.06912000  0.93581000  1.0
  C  C225  1  0.30660000  0.12160000  0.48480000  1.0
  C  C226  1  0.86070000  0.11613000  0.88199000  1.0
  C  C227  1  0.19270000  0.34570000  0.44130000  1.0
  C  C228  1  0.26720000  0.67937000  0.82920000  1.0
  C  C229  1  0.22980000  0.63480000  0.66840000  1.0
  C  C230  1  0.66610000  0.10878000  0.65999000  1.0
  C  C231  1  0.84370000  0.37271000  0.92664000  1.0
  C  C232  1  0.88230000  0.34365000  0.66157000  1.0
  C  C233  1  0.72770000  0.38802000  0.94331000  1.0
  C  C234  1  0.31210000  0.11042000  0.18700000  1.0
  C  C235  1  0.74070000  0.16935000  0.82985000  1.0
  C  C236  1  0.28610000  0.76463000  0.83340000  1.0
  C  C237  1  0.52830000  0.05379000  0.61023000  1.0
  C  C238  1  0.28860000  0.10380000  0.52770000  1.0
  C  C239  1  0.21590000  0.11680000  0.15262000  1.0
  C  C240  1  0.33260000  0.33620000  0.08240000  1.0
  C  C241  1  0.76820000  0.32630000  0.67656000  1.0
  C  C242  1  0.66000000  0.07462000  0.62876000  1.0
  C  C243  1  0.22800000  0.67470000  0.69350000  1.0
  C  C244  1  0.35240000  0.51820000  0.67900000  1.0
  C  C245  1  0.16260000  0.51940000  0.88380000  1.0
  C  C246  1  0.98990000  0.06358000  0.93140000  1.0
  C  C247  1  0.31210000  0.68333000  0.73080000  1.0
  C  C248  1  0.26940000  0.54870000  0.61340000  1.0
  C  C249  1  0.11430000  0.16790000  0.20320000  1.0
  C  C250  1  0.71280000  0.29012000  0.83326000  1.0
  C  C251  1  0.36320000  0.90210000  0.62930000  1.0
  C  C252  1  0.17380000  0.34290000  0.52300000  1.0
  C  C253  1  0.60090000  0.33990000  0.89036000  1.0
  C  C254  1  0.32250000  0.60170000  0.67930000  1.0
  C  C255  1  0.18110000  0.60238000  0.83330000  1.0
  C  C256  1  0.29300000  0.76632000  0.73370000  1.0
  C  C257  1  0.64900000  0.34129000  0.65891000  1.0
  C  C258  1  0.32120000  0.16729000  0.39979000  1.0
  C  C259  1  0.31020000  0.18903000  0.36003000  1.0
  C  C260  1  0.26490000  0.88888000  0.65700000  1.0
  C  C261  1  0.19270000  0.64220000  0.81090000  1.0
  C  C262  1  0.12570000  0.32250000  0.18220000  1.0
  C  C263  1  0.30700000  0.06300000  0.09493000  1.0
  C  C264  1  0.38100000  0.77690000  0.70380000  1.0
  C  C265  1  0.16570000  0.95810000  0.63820000  1.0
  C  C266  1  0.20480000  0.23970000  0.27587000  1.0
  C  C267  1  0.16070000  0.32090000  0.48050000  1.0
  C  C268  1  0.21820000  0.19500000  0.27782000  1.0
  C  C269  1  0.00880000  0.39463000  0.61103000  1.0
  C  C270  1  0.19150000  0.81482000  0.88820000  1.0
  C  C271  1  0.89560000  0.07610000  0.62899000  1.0
  C  C272  1  0.79050000  0.16719000  0.71134000  1.0
  C  C273  1  0.19240000  0.26970000  0.31606000  1.0
  C  C274  1  0.34250000  0.93147000  0.88210000  1.0
  C  C275  1  0.31300000  0.13466000  0.22832000  1.0
  C  C276  1  0.40820000  0.65170000  0.74030000  1.0
  C  C277  1  0.31940000  0.28380000  0.16480000  1.0
  C  C278  1  0.23660000  0.55382000  0.89940000  1.0
  C  C279  1  0.16620000  0.91640000  0.66010000  1.0
  C  C280  1  0.25100000  0.50370000  0.59490000  1.0
  C  C281  1  0.21670000  0.16510000  0.23631000  1.0
  C  C282  1  0.36050000  0.94360000  0.60980000  1.0
  C  C283  1  0.28570000  0.84824000  0.88150000  1.0
  C  C284  1  0.62460000  0.08550000  0.91628000  1.0
  C  C285  1  0.30850000  0.63515000  0.89640000  1.0
  C  C286  1  0.31680000  0.04950000  0.04931000  1.0
  C  C287  1  0.38400000  0.83790000  0.85370000  1.0
  C  C288  1  0.33160000  0.97453000  0.89712000  1.0
  C  C289  1  0.37370000  0.81670000  0.67850000  1.0
  C  C290  1  0.19310000  0.10460000  0.36609000  1.0
  C  C291  1  0.20070000  0.90664000  0.93645000  1.0
  C  C292  1  0.47170000  0.94621000  0.38977000  1.0
  C  C293  1  0.11770000  0.65635000  0.33843000  1.0
  C  C294  1  0.80950000  0.20380000  0.26170000  1.0
  C  C295  1  0.10440000  0.92390000  0.37101000  1.0
  C  C296  1  0.83740000  0.48060000  0.11620000  1.0
  C  C297  1  0.87430000  0.67750000  0.81780000  1.0
  C  C298  1  0.69150000  0.36485000  0.10360000  1.0
  C  C299  1  0.01010000  0.93642000  0.06860000  1.0
  C  C300  1  0.66680000  0.52370000  0.34180000  1.0
  C  C301  1  0.39480000  0.62831000  0.07446000  1.0
  C  C302  1  0.83430000  0.04190000  0.36180000  1.0
  C  C303  1  0.73480000  0.89830000  0.55210000  1.0
  C  C304  1  0.71140000  0.89620000  0.47230000  1.0
  C  C305  1  0.11800000  0.62371000  0.37162000  1.0
  C  C306  1  0.37650000  0.88163000  0.11728000  1.0
  C  C307  1  0.73060000  0.59770000  0.50270000  1.0
  C  C308  1  0.59180000  0.34830000  0.25970000  1.0
  C  C309  1  0.83380000  0.08360000  0.33990000  1.0
  C  C310  1  0.37540000  0.91450000  0.08372000  1.0
  C  C311  1  0.16360000  0.65937000  0.10821000  1.0
  C  C312  1  0.79520000  0.76030000  0.72413000  1.0
  C  C313  1  0.71640000  0.27795000  0.19530000  1.0
  C  C314  1  0.90400000  0.73740000  0.65410000  1.0
  C  C315  1  0.79930000  0.09336000  0.06355000  1.0
  C  C316  1  0.67750000  0.39830000  0.32070000  1.0
  C  C317  1  0.23280000  0.70924000  0.28789000  1.0
  C  C318  1  0.27230000  0.61198000  0.05669000  1.0
  C  C319  1  0.77560000  0.90296000  0.89323000  1.0
  C  C320  1  0.77200000  0.32530000  0.30650000  1.0
  C  C321  1  0.88570000  0.83210000  0.79680000  1.0
  C  C322  1  0.22280000  0.94170000  0.38720000  1.0
  C  C323  1  0.78480000  0.93820000  0.54540000  1.0
  C  C324  1  0.28720000  0.70988000  0.16674000  1.0
  C  C325  1  0.69300000  0.49750000  0.04200000  1.0
  C  C326  1  0.34000000  0.92538000  0.37124000  1.0
  C  C327  1  0.28370000  0.67602000  0.12711000  1.0
  C  C328  1  0.88680000  0.85590000  0.83760000  1.0
  C  C329  1  0.72430000  0.10469000  0.09817000  1.0
  C  C330  1  0.63680000  0.09790000  0.37070000  1.0
  C  C331  1  0.71890000  0.69440000  0.67500000  1.0
  C  C332  1  0.99120000  0.60537000  0.38897000  1.0
  C  C333  1  0.80690000  0.89540000  0.63391000  1.0
  C  C334  1  0.76340000  0.44618000  0.10060000  1.0
  C  C335  1  0.69340000  0.87840000  0.51520000  1.0
  C  C336  1  0.79110000  0.73530000  0.76727000  1.0
  C  C337  1  0.66710000  0.64180000  0.95800000  1.0
  C  C338  1  0.81270000  0.67750000  0.60360000  1.0
  C  C339  1  0.68580000  0.44290000  0.34370000  1.0
  C  C340  1  0.68010000  0.32448000  0.12730000  1.0
  C  C341  1  0.58740000  0.38830000  0.28470000  1.0
  C  C342  1  0.76010000  0.40257000  0.12390000  1.0
  C  C343  1  0.69160000  0.45530000  0.06110000  1.0
  C  C344  1  0.66840000  0.02547000  0.10288000  1.0
  C  C345  1  0.81620000  0.87250000  0.67415000  1.0
  C  C346  1  0.23180000  0.67370000  0.32344000  1.0
  C  C347  1  0.68790000  0.88958000  0.81300000  1.0
  C  C348  1  0.61900000  0.22310000  0.29620000  1.0
  C  C349  1  0.74170000  0.87588000  0.59584000  1.0
  C  C350  1  0.68980000  0.81097000  0.63997000  1.0
  C  C351  1  0.66740000  0.66380000  0.91760000  1.0
  C  C352  1  0.78410000  0.88320000  0.84738000  1.0
  C  C353  1  0.70700000  0.23368000  0.26630000  1.0
  C  C354  1  0.72130000  0.66860000  0.63560000  1.0
  C  C355  1  0.85000000  0.88490000  0.92990000  1.0
  C  C356  1  0.74900000  0.49630000  0.40510000  1.0
  C  C357  1  0.51630000  0.61123000  0.05522000  1.0
  C  C358  1  0.80850000  0.18518000  0.11180000  1.0
  C  C359  1  0.68060000  0.71620000  0.83520000  1.0
  C  C360  1  0.85720000  0.62700000  0.90210000  1.0
  C  C361  1  0.76390000  0.82870000  0.67845000  1.0
  C  C362  1  0.73510000  0.11112000  0.34300000  1.0
  C  C363  1  0.65750000  0.06853000  0.11790000  1.0
  C  C364  1  0.13930000  0.88387000  0.11801000  1.0
  C  C365  1  0.68700000  0.86534000  0.77168000  1.0
  C  C366  1  0.61600000  0.16210000  0.14630000  1.0
  C  C367  1  0.20950000  0.83281000  0.28866000  1.0
  C  C368  1  0.61220000  0.20260000  0.16960000  1.0
  C  C369  1  0.25930000  0.83065000  0.17015000  1.0
  C  C370  1  0.71390000  0.23537000  0.16660000  1.0
  C  C371  1  0.80760000  0.73030000  0.68394000  1.0
  C  C372  1  0.50000000  0.93088000  0.06419000  1.0
  C  C373  1  0.76730000  0.65740000  0.88828000  1.0
  C  C374  1  0.90370000  0.71100000  0.61300000  1.0
  C  C375  1  0.25820000  0.86678000  0.13438000  1.0
  C  C376  1  0.82620000  0.65710000  0.47700000  1.0
  C  C377  1  0.09750000  0.88872000  0.33881000  1.0
  C  C378  1  0.35450000  0.62528000  0.37451000  1.0
  C  C379  1  0.81890000  0.39762000  0.16670000  1.0
  C  C380  1  0.73060000  0.45130000  0.38660000  1.0
  C  C381  1  0.68320000  0.95050000  0.95069000  1.0
  C  C382  1  0.83700000  0.90020000  0.97352000  1.0
  C  C383  1  0.68790000  0.31667000  0.26920000  1.0
  C  C384  1  0.73280000  0.32063000  0.17080000  1.0
  C  C385  1  0.77530000  0.68400000  0.84635000  1.0
  C  C386  1  0.81480000  0.16440000  0.28510000  1.0
  C  C387  1  0.68890000  0.74050000  0.79570000  1.0
  C  C388  1  0.77020000  0.36520000  0.33160000  1.0
  C  C389  1  0.35100000  0.65871000  0.34109000  1.0
  C  C390  1  0.80730000  0.65430000  0.55870000  1.0
  C  C391  1  0.78330000  0.83490000  0.76369000  1.0
  C  C392  1  0.74480000  0.61680000  0.54830000  1.0
  C  C393  1  0.02720000  0.60809000  0.05370000  1.0
  C  C394  1  0.25560000  0.93112000  0.06923000  1.0
  C  C395  1  0.70240000  0.27613000  0.24030000  1.0
  C  C396  1  0.33390000  0.89122000  0.34001000  1.0
  C  C397  1  0.88010000  0.70250000  0.77870000  1.0
  C  C398  1  0.80870000  0.22653000  0.13599000  1.0
  C  C399  1  0.63950000  0.05640000  0.39020000  1.0
  C  C400  1  0.80730000  0.35780000  0.18910000  1.0
  C  C401  1  0.64760000  0.48180000  0.32100000  1.0
  C  C402  1  0.83180000  0.52410000  0.09540000  1.0
  C  C403  1  0.62630000  0.18330000  0.32150000  1.0
  C  C404  1  0.81100000  0.04852000  0.04970000  1.0
  C  C405  1  0.83930000  0.67910000  0.51950000  1.0
  C  C406  1  0.15630000  0.62729000  0.07336000  1.0
  C  C407  1  0.97960000  0.94321000  0.38836000  1.0
  C  C408  1  0.78180000  0.80500000  0.72218000  1.0
  C  C409  1  0.85230000  0.60660000  0.94370000  1.0
  C  C410  1  0.79150000  0.95720000  0.50200000  1.0
  C  C411  1  0.13680000  0.91696000  0.08578000  1.0
  C  C412  1  0.69300000  0.93700000  0.90507000  1.0
  C  C413  1  0.71430000  0.15176000  0.11850000  1.0
  C  C414  1  0.72460000  0.15399000  0.31680000  1.0
  C  C415  1  0.23660000  0.60899000  0.38902000  1.0
  C  C416  1  0.48220000  0.60874000  0.39363000  1.0
  C  C417  1  0.67880000  0.83271000  0.60021000  1.0
  C  C418  1  0.39910000  0.66010000  0.10964000  1.0
  C  C419  1  0.21410000  0.87194000  0.32276000  1.0
  N  N420  1  0.24490000  0.06765000  0.01568000  1.0
  N  N421  1  0.26510000  0.06102000  0.53346000  1.0
  N  N422  1  0.25370000  0.98510000  0.93099000  1.0
  N  N423  1  0.23510000  0.46867000  0.94063000  1.0
  N  N424  1  0.23040000  0.38580000  0.52977000  1.0
  N  N425  1  0.26270000  0.97264000  0.61520000  1.0
  N  N426  1  0.24130000  0.38651000  0.02798000  1.0
  N  N427  1  0.28290000  0.46973000  0.61621000  1.0
  N  N428  1  0.73490000  0.93898000  0.46654000  1.0
  N  N429  1  0.75510000  0.93235000  0.98432000  1.0
  N  N430  1  0.71710000  0.53027000  0.38379000  1.0
  N  N431  1  0.76960000  0.61420000  0.47023000  1.0
  N  N432  1  0.73730000  0.02736000  0.38480000  1.0
  N  N433  1  0.75870000  0.61349000  0.97202000  1.0
  N  N434  1  0.76490000  0.53133000  0.05937000  1.0
  N  N435  1  0.74630000  0.01490000  0.06901000  1.0
  O  O436  1  0.07670000  0.37531000  0.93140000  1.0
  O  O437  1  0.68000000  0.18068000  0.72186000  1.0
  O  O438  1  0.37220000  0.37048000  0.93044000  1.0
  O  O439  1  0.42550000  0.06808000  0.62737000  1.0
  O  O440  1  0.98690000  0.03045000  0.95734000  1.0
  O  O441  1  0.85130000  0.18367000  0.81864000  1.0
  O  O442  1  0.87760000  0.27873000  0.72800000  1.0
  O  O443  1  0.62920000  0.18190000  0.81475000  1.0
  O  O444  1  0.00910000  0.02785000  0.57932000  1.0
  O  O445  1  0.11490000  0.37636000  0.62525000  1.0
  O  O446  1  0.13070000  0.07083000  0.63015000  1.0
  O  O447  1  0.60230000  0.27670000  0.81650000  1.0
  O  O448  1  0.65480000  0.27664000  0.72279000  1.0
  O  O449  1  0.00510000  0.42556000  0.58362000  1.0
  O  O450  1  0.39130000  0.08352000  0.91831000  1.0
  O  O451  1  0.97730000  0.42230000  0.97618000  1.0
  O  O452  1  0.51350000  0.41896000  0.57598000  1.0
  O  O453  1  0.90030000  0.18229000  0.72649000  1.0
  O  O454  1  0.49190000  0.41986000  0.97459000  1.0
  O  O455  1  0.50660000  0.04276000  0.96812000  1.0
  O  O456  1  0.82340000  0.27806000  0.82131000  1.0
  O  O457  1  0.41250000  0.37463000  0.62171000  1.0
  O  O458  1  0.09580000  0.08216000  0.91810000  1.0
  O  O459  1  0.52600000  0.02398000  0.57928000  1.0
  O  O460  1  0.92330000  0.62469000  0.06860000  1.0
  O  O461  1  0.09970000  0.81771000  0.27351000  1.0
  O  O462  1  0.58750000  0.62537000  0.37829000  1.0
  O  O463  1  0.62780000  0.62952000  0.06956000  1.0
  O  O464  1  0.17660000  0.72194000  0.17869000  1.0
  O  O465  1  0.90420000  0.91784000  0.08190000  1.0
  O  O466  1  0.86930000  0.92917000  0.36985000  1.0
  O  O467  1  0.34520000  0.72336000  0.27721000  1.0
  O  O468  1  0.57450000  0.93192000  0.37263000  1.0
  O  O469  1  0.47400000  0.97602000  0.42072000  1.0
  O  O470  1  0.37080000  0.81810000  0.18525000  1.0
  O  O471  1  0.12240000  0.72127000  0.27200000  1.0
  O  O472  1  0.01310000  0.96955000  0.04266000  1.0
  O  O473  1  0.60870000  0.91648000  0.08169000  1.0
  O  O474  1  0.14870000  0.81633000  0.18136000  1.0
  O  O475  1  0.49340000  0.95724000  0.03188000  1.0
  O  O476  1  0.48650000  0.58104000  0.42402000  1.0
  O  O477  1  0.32000000  0.81932000  0.27814000  1.0
  O  O478  1  0.39770000  0.72330000  0.18350000  1.0
  O  O479  1  0.99490000  0.57444000  0.41638000  1.0
  O  O480  1  0.50810000  0.58014000  0.02541000  1.0
  O  O481  1  0.99090000  0.97215000  0.42068000  1.0
  O  O482  1  0.02270000  0.57770000  0.02382000  1.0
  O  O483  1  0.88510000  0.62364000  0.37475000  1.0
