# generated using pymatgen
data_LaCuH24C38N3O10
_symmetry_space_group_name_H-M   'P 1'
_cell_length_a   11.76100000
_cell_length_b   27.13000000
_cell_length_c   34.66700000
_cell_angle_alpha   89.94140000
_cell_angle_beta   90.00000000
_cell_angle_gamma   90.00000000
_symmetry_Int_Tables_number   1
_chemical_formula_structural   LaCuH24C38N3O10
_chemical_formula_sum   'La8 Cu8 H192 C304 N24 O80'
_cell_volume   11061.39947995
_cell_formula_units_Z   8
loop_
 _symmetry_equiv_pos_site_id
 _symmetry_equiv_pos_as_xyz
  1  'x, y, z'
loop_
 _atom_site_type_symbol
 _atom_site_label
 _atom_site_symmetry_multiplicity
 _atom_site_fract_x
 _atom_site_fract_y
 _atom_site_fract_z
 _atom_site_occupancy
  La  La0  1  0.55894000  0.24958000  0.69949000  1.0
  La  La1  1  0.08925000  0.74811000  0.69946000  1.0
  La  La2  1  0.05894000  0.25042000  0.80051000  1.0
  La  La3  1  0.44106000  0.75042000  0.30051000  1.0
  La  La4  1  0.94106000  0.74958000  0.19949000  1.0
  La  La5  1  0.41075000  0.24811000  0.19946000  1.0
  La  La6  1  0.58925000  0.75189000  0.80054000  1.0
  La  La7  1  0.91075000  0.25189000  0.30054000  1.0
  Cu  Cu8  1  0.10241000  0.75091000  0.81313000  1.0
  Cu  Cu9  1  0.39759000  0.25091000  0.31313000  1.0
  Cu  Cu10  1  0.07892000  0.24755000  0.68649000  1.0
  Cu  Cu11  1  0.57892000  0.25245000  0.81351000  1.0
  Cu  Cu12  1  0.89759000  0.24909000  0.18687000  1.0
  Cu  Cu13  1  0.42108000  0.74755000  0.18649000  1.0
  Cu  Cu14  1  0.60241000  0.74909000  0.68687000  1.0
  Cu  Cu15  1  0.92108000  0.75245000  0.31351000  1.0
  H  H16  1  0.70840000  0.73560000  0.55010000  1.0
  H  H17  1  0.23900000  0.16440000  0.31280000  1.0
  H  H18  1  0.56730000  0.92420000  0.34210000  1.0
  H  H19  1  0.38260000  0.30400000  0.57260000  1.0
  H  H20  1  0.24340000  0.08210000  0.30990000  1.0
  H  H21  1  0.95220000  0.48770000  0.72300000  1.0
  H  H22  1  0.25660000  0.58210000  0.80990000  1.0
  H  H23  1  0.41570000  0.33540000  0.80910000  1.0
  H  H24  1  0.12310000  0.75890000  0.36580000  1.0
  H  H25  1  0.43450000  0.51300000  0.72030000  1.0
  H  H26  1  0.42610000  0.58540000  0.69060000  1.0
  H  H27  1  0.73820000  0.57740000  0.77940000  1.0
  H  H28  1  0.76430000  0.57830000  0.69410000  1.0
  H  H29  1  0.23950000  0.91440000  0.18040000  1.0
  H  H30  1  0.64320000  0.21050000  0.55800000  1.0
  H  H31  1  0.87650000  0.75330000  0.93480000  1.0
  H  H32  1  0.62310000  0.74110000  0.13420000  1.0
  H  H33  1  0.22940000  0.33690000  0.30860000  1.0
  H  H34  1  0.42260000  0.08540000  0.81290000  1.0
  H  H35  1  0.07370000  0.92780000  0.22640000  1.0
  H  H36  1  0.92630000  0.07220000  0.77360000  1.0
  H  H37  1  0.93450000  0.98700000  0.77970000  1.0
  H  H38  1  0.23860000  0.99850000  0.82930000  1.0
  H  H39  1  0.93590000  0.00390000  0.66330000  1.0
  H  H40  1  0.67280000  0.25390000  0.95110000  1.0
  H  H41  1  0.25180000  0.32940000  0.67940000  1.0
  H  H42  1  0.07790000  0.41300000  0.17570000  1.0
  H  H43  1  0.76050000  0.08560000  0.81960000  1.0
  H  H44  1  0.10580000  0.28920000  0.49470000  1.0
  H  H45  1  0.75660000  0.91790000  0.69010000  1.0
  H  H46  1  0.94110000  0.82980000  0.81550000  1.0
  H  H47  1  0.57370000  0.57220000  0.27360000  1.0
  H  H48  1  0.19390000  0.79430000  0.55910000  1.0
  H  H49  1  0.71720000  0.99170000  0.72240000  1.0
  H  H50  1  0.85390000  0.19550000  0.99340000  1.0
  H  H51  1  0.32720000  0.74610000  0.04890000  1.0
  H  H52  1  0.45220000  0.01230000  0.77700000  1.0
  H  H53  1  0.75310000  0.83400000  0.31700000  1.0
  H  H54  1  0.91460000  0.08000000  0.69150000  1.0
  H  H55  1  0.35390000  0.30450000  0.50660000  1.0
  H  H56  1  0.84180000  0.23590000  0.56760000  1.0
  H  H57  1  0.75100000  0.41840000  0.81520000  1.0
  H  H58  1  0.35680000  0.78950000  0.44200000  1.0
  H  H59  1  0.79160000  0.23560000  0.05010000  1.0
  H  H60  1  0.82720000  0.75390000  0.45110000  1.0
  H  H61  1  0.06410000  0.99610000  0.33670000  1.0
  H  H62  1  0.76340000  0.23520000  0.11630000  1.0
  H  H63  1  0.41580000  0.78790000  0.93010000  1.0
  H  H64  1  0.92610000  0.91460000  0.80940000  1.0
  H  H65  1  0.74900000  0.91840000  0.31520000  1.0
  H  H66  1  0.58420000  0.21210000  0.06990000  1.0
  H  H67  1  0.85680000  0.71050000  0.05800000  1.0
  H  H68  1  0.73570000  0.07830000  0.19410000  1.0
  H  H69  1  0.61790000  0.21320000  0.49150000  1.0
  H  H70  1  0.26800000  0.99150000  0.15770000  1.0
  H  H71  1  0.26680000  0.07660000  0.16200000  1.0
  H  H72  1  0.05480000  0.49140000  0.15120000  1.0
  H  H73  1  0.23570000  0.42170000  0.30590000  1.0
  H  H74  1  0.73860000  0.50150000  0.67070000  1.0
  H  H75  1  0.83640000  0.20240000  0.50740000  1.0
  H  H76  1  0.93960000  0.91840000  0.66790000  1.0
  H  H77  1  0.58430000  0.66460000  0.19090000  1.0
  H  H78  1  0.87690000  0.24110000  0.63420000  1.0
  H  H79  1  0.23160000  0.08220000  0.82390000  1.0
  H  H80  1  0.30610000  0.29430000  0.05910000  1.0
  H  H81  1  0.92210000  0.58700000  0.82430000  1.0
  H  H82  1  0.61740000  0.69600000  0.42740000  1.0
  H  H83  1  0.76100000  0.83560000  0.68720000  1.0
  H  H84  1  0.38210000  0.78680000  0.50850000  1.0
  H  H85  1  0.74340000  0.41790000  0.19010000  1.0
  H  H86  1  0.88210000  0.71320000  0.99150000  1.0
  H  H87  1  0.42980000  0.82900000  0.68100000  1.0
  H  H88  1  0.06730000  0.57580000  0.15790000  1.0
  H  H89  1  0.14610000  0.80450000  0.00660000  1.0
  H  H90  1  0.11740000  0.80400000  0.07260000  1.0
  H  H91  1  0.66360000  0.70240000  0.00740000  1.0
  H  H92  1  0.56550000  0.48700000  0.27970000  1.0
  H  H93  1  0.42270000  0.16890000  0.81150000  1.0
  H  H94  1  0.16360000  0.79760000  0.49260000  1.0
  H  H95  1  0.73950000  0.58560000  0.31960000  1.0
  H  H96  1  0.73320000  0.92340000  0.83800000  1.0
  H  H97  1  0.26050000  0.41440000  0.68040000  1.0
  H  H98  1  0.37650000  0.74670000  0.56520000  1.0
  H  H99  1  0.74820000  0.67060000  0.32060000  1.0
  H  H100  1  0.74690000  0.33400000  0.81700000  1.0
  H  H101  1  0.23820000  0.92260000  0.72060000  1.0
  H  H102  1  0.29160000  0.26440000  0.44990000  1.0
  H  H103  1  0.72940000  0.16310000  0.19140000  1.0
  H  H104  1  0.26140000  0.49850000  0.32930000  1.0
  H  H105  1  0.44110000  0.67020000  0.68450000  1.0
  H  H106  1  0.34180000  0.26410000  0.93240000  1.0
  H  H107  1  0.76140000  0.00150000  0.17070000  1.0
  H  H108  1  0.43270000  0.07580000  0.65790000  1.0
  H  H109  1  0.73160000  0.41780000  0.67610000  1.0
  H  H110  1  0.04730000  0.42770000  0.27300000  1.0
  H  H111  1  0.23840000  0.00760000  0.71640000  1.0
  H  H112  1  0.14320000  0.28950000  0.94200000  1.0
  H  H113  1  0.55890000  0.32980000  0.31550000  1.0
  H  H114  1  0.24900000  0.58160000  0.18480000  1.0
  H  H115  1  0.76160000  0.99240000  0.28360000  1.0
  H  H116  1  0.24820000  0.82940000  0.17940000  1.0
  H  H117  1  0.08430000  0.83540000  0.30910000  1.0
  H  H118  1  0.69390000  0.70570000  0.94090000  1.0
  H  H119  1  0.80610000  0.20570000  0.44090000  1.0
  H  H120  1  0.15820000  0.76410000  0.43240000  1.0
  H  H121  1  0.56040000  0.41840000  0.16790000  1.0
  H  H122  1  0.25100000  0.08160000  0.68480000  1.0
  H  H123  1  0.76680000  0.42340000  0.33800000  1.0
  H  H124  1  0.33640000  0.29760000  0.99260000  1.0
  H  H125  1  0.44520000  0.99140000  0.65120000  1.0
  H  H126  1  0.73660000  0.73520000  0.61630000  1.0
  H  H127  1  0.06040000  0.08160000  0.33210000  1.0
  H  H128  1  0.73200000  0.00850000  0.84230000  1.0
  H  H129  1  0.20840000  0.76440000  0.94990000  1.0
  H  H130  1  0.57740000  0.91460000  0.18710000  1.0
  H  H131  1  0.77060000  0.66310000  0.69140000  1.0
  H  H132  1  0.07740000  0.58540000  0.31290000  1.0
  H  H133  1  0.62350000  0.25330000  0.43480000  1.0
  H  H134  1  0.79620000  0.57710000  0.22680000  1.0
  H  H135  1  0.79700000  0.75320000  0.38620000  1.0
  H  H136  1  0.94520000  0.50860000  0.84880000  1.0
  H  H137  1  0.39420000  0.78920000  0.99470000  1.0
  H  H138  1  0.23320000  0.57660000  0.66200000  1.0
  H  H139  1  0.65820000  0.73590000  0.06760000  1.0
  H  H140  1  0.75180000  0.17060000  0.82060000  1.0
  H  H141  1  0.20300000  0.24680000  0.61380000  1.0
  H  H142  1  0.08420000  0.28790000  0.43010000  1.0
  H  H143  1  0.70300000  0.25320000  0.88620000  1.0
  H  H144  1  0.76180000  0.07740000  0.27940000  1.0
  H  H145  1  0.42210000  0.91300000  0.67570000  1.0
  H  H146  1  0.26430000  0.92170000  0.80590000  1.0
  H  H147  1  0.73900000  0.33560000  0.18720000  1.0
  H  H148  1  0.91580000  0.71210000  0.56990000  1.0
  H  H149  1  0.23660000  0.76480000  0.88370000  1.0
  H  H150  1  0.56410000  0.50390000  0.16330000  1.0
  H  H151  1  0.41460000  0.42000000  0.80850000  1.0
  H  H152  1  0.89420000  0.71080000  0.50530000  1.0
  H  H153  1  0.92270000  0.33110000  0.68850000  1.0
  H  H154  1  0.76840000  0.91780000  0.17610000  1.0
  H  H155  1  0.27060000  0.83690000  0.80860000  1.0
  H  H156  1  0.21720000  0.50830000  0.77760000  1.0
  H  H157  1  0.95270000  0.57230000  0.72700000  1.0
  H  H158  1  0.88260000  0.19600000  0.92740000  1.0
  H  H159  1  0.06550000  0.01300000  0.22030000  1.0
  H  H160  1  0.26160000  0.50760000  0.21640000  1.0
  H  H161  1  0.55480000  0.00860000  0.34880000  1.0
  H  H162  1  0.07730000  0.66890000  0.31150000  1.0
  H  H163  1  0.07020000  0.32900000  0.18100000  1.0
  H  H164  1  0.37690000  0.25890000  0.86580000  1.0
  H  H165  1  0.23200000  0.49150000  0.65770000  1.0
  H  H166  1  0.40390000  0.75030000  0.63180000  1.0
  H  H167  1  0.26100000  0.66440000  0.81280000  1.0
  H  H168  1  0.57020000  0.17100000  0.31900000  1.0
  H  H169  1  0.64610000  0.69550000  0.49340000  1.0
  H  H170  1  0.57730000  0.83110000  0.18850000  1.0
  H  H171  1  0.11790000  0.28680000  0.00850000  1.0
  H  H172  1  0.57390000  0.41460000  0.30940000  1.0
  H  H173  1  0.20380000  0.42290000  0.77320000  1.0
  H  H174  1  0.29700000  0.74680000  0.11380000  1.0
  H  H175  1  0.29620000  0.92290000  0.27320000  1.0
  H  H176  1  0.28280000  0.00830000  0.27760000  1.0
  H  H177  1  0.90390000  0.74970000  0.86820000  1.0
  H  H178  1  0.58540000  0.58000000  0.19150000  1.0
  H  H179  1  0.07390000  0.08540000  0.19060000  1.0
  H  H180  1  0.26180000  0.42260000  0.22060000  1.0
  H  H181  1  0.42630000  0.42780000  0.72640000  1.0
  H  H182  1  0.26840000  0.58220000  0.32390000  1.0
  H  H183  1  0.26340000  0.26480000  0.38370000  1.0
  H  H184  1  0.60580000  0.21080000  0.00530000  1.0
  H  H185  1  0.08540000  0.92000000  0.30850000  1.0
  H  H186  1  0.59610000  0.24970000  0.36820000  1.0
  H  H187  1  0.43590000  0.49610000  0.83670000  1.0
  H  H188  1  0.91570000  0.16460000  0.69090000  1.0
  H  H189  1  0.24690000  0.16600000  0.68300000  1.0
  H  H190  1  0.92260000  0.41460000  0.68710000  1.0
  H  H191  1  0.04780000  0.51230000  0.27700000  1.0
  H  H192  1  0.43960000  0.58160000  0.83210000  1.0
  H  H193  1  0.09610000  0.25030000  0.13180000  1.0
  H  H194  1  0.57790000  0.08700000  0.32430000  1.0
  H  H195  1  0.05890000  0.17020000  0.18450000  1.0
  H  H196  1  0.54730000  0.07230000  0.22700000  1.0
  H  H197  1  0.45270000  0.92770000  0.77300000  1.0
  H  H198  1  0.78280000  0.49170000  0.22240000  1.0
  H  H199  1  0.76800000  0.50850000  0.34230000  1.0
  H  H200  1  0.73840000  0.49240000  0.78360000  1.0
  H  H201  1  0.93270000  0.42420000  0.84210000  1.0
  H  H202  1  0.25310000  0.66600000  0.18300000  1.0
  H  H203  1  0.54780000  0.98770000  0.22300000  1.0
  H  H204  1  0.17280000  0.24610000  0.54890000  1.0
  H  H205  1  0.92980000  0.67100000  0.81900000  1.0
  H  H206  1  0.12350000  0.24670000  0.06520000  1.0
  H  H207  1  0.70380000  0.07710000  0.72680000  1.0
  C  C208  1  0.51560000  0.64770000  0.18960000  1.0
  C  C209  1  0.88900000  0.75560000  0.43440000  1.0
  C  C210  1  0.67080000  0.43670000  0.68470000  1.0
  C  C211  1  0.80910000  0.60180000  0.31750000  1.0
  C  C212  1  0.09400000  0.92810000  0.80850000  1.0
  C  C213  1  0.08550000  0.27000000  0.95220000  1.0
  C  C214  1  0.08980000  0.98320000  0.80590000  1.0
  C  C215  1  0.41340000  0.98000000  0.18870000  1.0
  C  C216  1  0.99050000  0.44380000  0.28670000  1.0
  C  C217  1  0.99420000  0.00620000  0.78880000  1.0
  C  C218  1  0.72230000  0.75317000  0.26723000  1.0
  C  C219  1  0.41120000  0.92480000  0.18640000  1.0
  C  C220  1  0.81870000  0.90220000  0.31400000  1.0
  C  C221  1  0.98360000  0.09670000  0.69020000  1.0
  C  C222  1  0.00840000  0.65230000  0.31330000  1.0
  C  C223  1  0.96600000  0.75260000  0.88470000  1.0
  C  C224  1  0.51700000  0.74010000  0.50820000  1.0
  C  C225  1  0.67680000  0.94140000  0.82550000  1.0
  C  C226  1  0.04770000  0.27030000  0.48420000  1.0
  C  C227  1  0.42310000  0.01850000  0.31290000  1.0
  C  C228  1  0.37120000  0.74550000  0.10460000  1.0
  C  C229  1  0.49280000  0.34840000  0.31300000  1.0
  C  C230  1  0.58980000  0.51680000  0.69410000  1.0
  C  C231  1  0.80620000  0.75000000  0.73180000  1.0
  C  C232  1  0.11280000  0.78050000  0.50810000  1.0
  C  C233  1  0.67680000  0.51010000  0.79320000  1.0
  C  C234  1  0.65940000  0.00840000  0.70960000  1.0
  C  C235  1  0.00820000  0.60190000  0.31320000  1.0
  C  C236  1  0.38720000  0.28050000  0.00810000  1.0
  C  C237  1  0.50100000  0.43660000  0.17830000  1.0
  C  C238  1  0.19700000  0.90380000  0.80770000  1.0
  C  C239  1  0.01870000  0.75740000  0.49150000  1.0
  C  C240  1  0.56280000  0.74150000  0.11690000  1.0
  C  C241  1  0.91450000  0.73000000  0.04780000  1.0
  C  C242  1  0.44440000  0.85980000  0.30350000  1.0
  C  C243  1  0.86830000  0.22190000  0.45150000  1.0
  C  C244  1  0.37010000  0.74950000  0.72960000  1.0
  C  C245  1  0.12880000  0.24550000  0.60460000  1.0
  C  C246  1  0.00580000  0.99380000  0.21120000  1.0
  C  C247  1  0.00100000  0.06340000  0.32170000  1.0
  C  C248  1  0.07560000  0.75010000  0.61460000  1.0
  C  C249  1  0.51840000  0.25650000  0.57250000  1.0
  C  C250  1  0.58630000  0.64270000  0.80160000  1.0
  C  C251  1  0.96310000  0.24040000  0.05110000  1.0
  C  C252  1  0.09490000  0.58270000  0.69610000  1.0
  C  C253  1  0.61280000  0.71950000  0.99190000  1.0
  C  C254  1  0.94440000  0.64020000  0.19650000  1.0
  C  C255  1  0.80300000  0.09620000  0.19230000  1.0
  C  C256  1  0.49680000  0.51200000  0.82490000  1.0
  C  C257  1  0.69380000  0.25000000  0.23180000  1.0
  C  C258  1  0.59490000  0.91730000  0.80390000  1.0
  C  C259  1  0.13170000  0.77810000  0.54850000  1.0
  C  C260  1  0.62880000  0.25450000  0.89540000  1.0
  C  C261  1  0.87010000  0.75050000  0.77040000  1.0
  C  C262  1  0.17920000  0.14850000  0.68510000  1.0
  C  C263  1  0.68870000  0.90060000  0.68770000  1.0
  C  C264  1  0.82320000  0.01010000  0.29320000  1.0
  C  C265  1  0.58880000  0.07520000  0.81360000  1.0
  C  C266  1  0.57040000  0.71450000  0.44340000  1.0
  C  C267  1  0.35370000  0.26210000  0.43340000  1.0
  C  C268  1  0.58400000  0.73900000  0.07650000  1.0
  C  C269  1  0.48360000  0.40330000  0.80980000  1.0
  C  C270  1  0.91120000  0.57520000  0.31360000  1.0
  C  C271  1  0.50950000  0.94380000  0.78670000  1.0
  C  C272  1  0.92960000  0.21450000  0.94340000  1.0
  C  C273  1  0.99020000  0.44120000  0.82930000  1.0
  C  C274  1  0.42960000  0.28550000  0.55660000  1.0
  C  C275  1  0.57030000  0.23120000  0.50760000  1.0
  C  C276  1  0.00720000  0.84840000  0.81300000  1.0
  C  C277  1  0.50250000  0.39990000  0.31010000  1.0
  C  C278  1  0.58630000  0.58730000  0.80380000  1.0
  C  C279  1  0.41450000  0.77000000  0.45220000  1.0
  C  C280  1  0.65640000  0.75031000  0.22809000  1.0
  C  C281  1  0.15940000  0.49160000  0.79040000  1.0
  C  C282  1  0.49160000  0.15230000  0.81330000  1.0
  C  C283  1  0.07550000  0.08630000  0.79930000  1.0
  C  C284  1  0.15150000  0.44030000  0.78800000  1.0
  C  C285  1  0.18440000  0.34710000  0.68170000  1.0
  C  C286  1  0.51870000  0.74260000  0.00850000  1.0
  C  C287  1  0.91370000  0.14270000  0.30160000  1.0
  C  C288  1  0.08660000  0.78600000  0.01680000  1.0
  C  C289  1  0.50830000  0.10230000  0.31970000  1.0
  C  C290  1  0.67460000  0.48700000  0.68180000  1.0
  C  C291  1  0.82540000  0.98700000  0.18180000  1.0
  C  C292  1  0.80920000  0.35140000  0.18640000  1.0
  C  C293  1  0.84060000  0.50840000  0.20960000  1.0
  C  C294  1  0.56680000  0.08480000  0.69260000  1.0
  C  C295  1  0.41600000  0.57020000  0.18890000  1.0
  C  C296  1  0.05010000  0.24500000  0.07510000  1.0
  C  C297  1  0.99690000  0.65300000  0.81830000  1.0
  C  C298  1  0.49750000  0.60010000  0.68990000  1.0
  C  C299  1  0.41160000  0.51510000  0.19010000  1.0
  C  C300  1  0.84850000  0.55970000  0.21200000  1.0
  C  C301  1  0.83600000  0.23880000  0.10610000  1.0
  C  C302  1  0.49620000  0.00770000  0.66720000  1.0
  C  C303  1  0.99900000  0.93660000  0.67830000  1.0
  C  C304  1  0.50580000  0.50620000  0.28880000  1.0
  C  C305  1  0.32340000  0.43890000  0.20960000  1.0
  C  C306  1  0.31130000  0.09940000  0.31230000  1.0
  C  C307  1  0.30920000  0.14860000  0.31360000  1.0
  C  C308  1  0.99650000  0.75920000  0.44920000  1.0
  C  C309  1  0.99680000  0.98800000  0.67510000  1.0
  C  C310  1  0.49020000  0.05880000  0.67070000  1.0
  C  C311  1  0.51640000  0.59670000  0.19020000  1.0
  C  C312  1  0.98130000  0.24260000  0.50850000  1.0
  C  C313  1  0.17490000  0.50770000  0.67130000  1.0
  C  C314  1  0.49420000  0.49380000  0.71120000  1.0
  C  C315  1  0.58400000  0.42980000  0.81110000  1.0
  C  C316  1  0.08630000  0.91270000  0.69620000  1.0
  C  C317  1  0.36830000  0.27810000  0.04850000  1.0
  C  C318  1  0.32510000  0.00770000  0.17130000  1.0
  C  C319  1  0.48160000  0.74350000  0.42750000  1.0
  C  C320  1  0.50720000  0.65160000  0.68700000  1.0
  C  C321  1  0.08400000  0.07020000  0.68890000  1.0
  C  C322  1  0.67660000  0.56110000  0.79040000  1.0
  C  C323  1  0.33600000  0.26120000  0.39390000  1.0
  C  C324  1  0.15640000  0.74969000  0.27191000  1.0
  C  C325  1  0.90340000  0.36070000  0.29960000  1.0
  C  C326  1  0.07690000  0.51850000  0.81290000  1.0
  C  C327  1  0.59660000  0.86070000  0.79960000  1.0
  C  C328  1  0.30620000  0.75000000  0.76820000  1.0
  C  C329  1  0.82340000  0.06110000  0.29040000  1.0
  C  C330  1  0.00350000  0.24080000  0.55080000  1.0
  C  C331  1  0.69700000  0.59620000  0.69230000  1.0
  C  C332  1  0.08400000  0.76100000  0.42350000  1.0
  C  C333  1  0.07220000  0.14150000  0.79760000  1.0
  C  C334  1  0.08880000  0.42480000  0.68640000  1.0
  C  C335  1  0.42440000  0.25010000  0.11460000  1.0
  C  C336  1  0.88720000  0.21950000  0.49190000  1.0
  C  C337  1  0.49650000  0.74080000  0.05080000  1.0
  C  C338  1  0.43720000  0.25850000  0.88310000  1.0
  C  C339  1  0.01640000  0.90330000  0.30980000  1.0
  C  C340  1  0.48880000  0.44250000  0.71460000  1.0
  C  C341  1  0.92970000  0.73120000  0.00760000  1.0
  C  C342  1  0.29960000  0.35260000  0.30940000  1.0
  C  C343  1  0.01120000  0.94250000  0.21460000  1.0
  C  C344  1  0.50980000  0.94120000  0.32930000  1.0
  C  C345  1  0.57550000  0.41370000  0.70070000  1.0
  C  C346  1  0.81130000  0.40060000  0.18770000  1.0
  C  C347  1  0.59400000  0.57190000  0.69150000  1.0
  C  C348  1  0.42970000  0.76880000  0.49240000  1.0
  C  C349  1  0.44990000  0.74500000  0.57510000  1.0
  C  C350  1  0.20040000  0.85260000  0.80940000  1.0
  C  C351  1  0.85370000  0.23790000  0.06660000  1.0
  C  C352  1  0.98300000  0.24010000  0.00820000  1.0
  C  C353  1  0.00840000  0.50530000  0.71010000  1.0
  C  C354  1  0.46120000  0.74130000  0.38460000  1.0
  C  C355  1  0.82920000  0.93670000  0.18470000  1.0
  C  C356  1  0.82510000  0.49230000  0.32870000  1.0
  C  C357  1  0.00310000  0.34700000  0.18170000  1.0
  C  C358  1  0.41340000  0.28600000  0.51680000  1.0
  C  C359  1  0.03190000  0.27110000  0.44530000  1.0
  C  C360  1  0.42780000  0.64150000  0.29760000  1.0
  C  C361  1  0.67920000  0.35150000  0.81490000  1.0
  C  C362  1  0.99160000  0.49470000  0.28990000  1.0
  C  C363  1  0.53190000  0.22890000  0.05470000  1.0
  C  C364  1  0.68130000  0.40220000  0.81400000  1.0
  C  C365  1  0.46810000  0.77110000  0.94530000  1.0
  C  C366  1  0.64630000  0.73790000  0.56660000  1.0
  C  C367  1  0.50820000  0.89810000  0.18680000  1.0
  C  C368  1  0.17680000  0.55860000  0.67450000  1.0
  C  C369  1  0.92440000  0.24990000  0.38540000  1.0
  C  C370  1  0.91340000  0.21400000  0.98320000  1.0
  C  C371  1  0.18130000  0.09780000  0.68600000  1.0
  C  C372  1  0.31870000  0.59780000  0.18600000  1.0
  C  C373  1  0.57560000  0.74990000  0.88540000  1.0
  C  C374  1  0.49050000  0.05620000  0.21330000  1.0
  C  C375  1  0.92780000  0.85850000  0.20240000  1.0
  C  C376  1  0.81560000  0.65290000  0.31830000  1.0
  C  C377  1  0.69090000  0.10180000  0.81750000  1.0
  C  C378  1  0.11100000  0.24440000  0.56560000  1.0
  C  C379  1  0.67490000  0.99230000  0.82870000  1.0
  C  C380  1  0.91600000  0.92980000  0.31110000  1.0
  C  C381  1  0.49160000  0.00530000  0.21010000  1.0
  C  C382  1  0.17680000  0.98990000  0.70680000  1.0
  C  C383  1  0.51120000  0.55750000  0.28540000  1.0
  C  C384  1  0.99280000  0.15160000  0.18700000  1.0
  C  C385  1  0.41370000  0.41270000  0.19620000  1.0
  C  C386  1  0.17460000  0.01300000  0.81820000  1.0
  C  C387  1  0.91020000  0.01680000  0.19410000  1.0
  C  C388  1  0.69080000  0.85140000  0.68640000  1.0
  C  C389  1  0.50310000  0.15300000  0.31830000  1.0
  C  C390  1  0.55560000  0.14020000  0.69650000  1.0
  C  C391  1  0.79960000  0.14740000  0.19060000  1.0
  C  C392  1  0.50840000  0.99470000  0.78990000  1.0
  C  C393  1  0.46600000  0.74740000  0.61530000  1.0
  C  C394  1  0.96810000  0.72890000  0.55470000  1.0
  C  C395  1  0.45230000  0.77030000  0.98420000  1.0
  C  C396  1  0.05560000  0.35980000  0.80350000  1.0
  C  C397  1  0.91160000  0.98490000  0.30990000  1.0
  C  C398  1  0.65150000  0.05970000  0.71200000  1.0
  C  C399  1  0.90600000  0.07190000  0.19150000  1.0
  C  C400  1  0.01700000  0.75990000  0.99180000  1.0
  C  C401  1  0.03690000  0.75960000  0.94890000  1.0
  C  C402  1  0.27770000  0.24683000  0.73277000  1.0
  C  C403  1  0.99750000  0.89990000  0.81010000  1.0
  C  C404  1  0.91600000  0.23900000  0.57650000  1.0
  C  C405  1  0.94200000  0.24820000  0.42760000  1.0
  C  C406  1  0.63170000  0.72190000  0.95150000  1.0
  C  C407  1  0.57690000  0.98150000  0.68710000  1.0
  C  C408  1  0.66400000  0.73880000  0.60610000  1.0
  C  C409  1  0.49900000  0.56340000  0.82170000  1.0
  C  C410  1  0.91370000  0.08730000  0.30380000  1.0
  C  C411  1  0.08840000  0.01510000  0.69010000  1.0
  C  C412  1  0.00380000  0.50770000  0.16720000  1.0
  C  C413  1  0.91310000  0.42640000  0.18550000  1.0
  C  C414  1  0.62990000  0.25050000  0.27040000  1.0
  C  C415  1  0.01560000  0.85230000  0.31040000  1.0
  C  C416  1  0.17080000  0.06330000  0.81530000  1.0
  C  C417  1  0.96120000  0.75870000  0.11540000  1.0
  C  C418  1  0.41370000  0.35730000  0.19840000  1.0
  C  C419  1  0.19080000  0.64860000  0.81360000  1.0
  C  C420  1  0.58690000  0.92640000  0.68550000  1.0
  C  C421  1  0.58550000  0.23000000  0.54780000  1.0
  C  C422  1  0.40510000  0.08270000  0.19610000  1.0
  C  C423  1  0.87120000  0.75450000  0.39540000  1.0
  C  C424  1  0.08660000  0.48000000  0.68870000  1.0
  C  C425  1  0.41020000  0.48320000  0.30590000  1.0
  C  C426  1  0.34360000  0.24969000  0.77191000  1.0
  C  C427  1  0.34060000  0.99160000  0.29040000  1.0
  C  C428  1  0.40600000  0.42810000  0.30850000  1.0
  C  C429  1  0.82320000  0.44140000  0.32550000  1.0
  C  C430  1  0.06680000  0.41520000  0.80740000  1.0
  C  C431  1  0.08630000  0.85730000  0.69840000  1.0
  C  C432  1  0.93320000  0.58480000  0.19260000  1.0
  C  C433  1  0.99180000  0.39810000  0.68680000  1.0
  C  C434  1  0.32080000  0.64850000  0.18510000  1.0
  C  C435  1  0.03880000  0.24130000  0.88460000  1.0
  C  C436  1  0.54770000  0.22970000  0.01580000  1.0
  C  C437  1  0.43320000  0.91520000  0.30740000  1.0
  C  C438  1  0.55010000  0.25500000  0.42490000  1.0
  C  C439  1  0.44200000  0.25180000  0.07240000  1.0
  C  C440  1  0.07030000  0.26880000  0.99240000  1.0
  C  C441  1  0.55800000  0.74820000  0.92760000  1.0
  C  C442  1  0.32920000  0.56330000  0.31530000  1.0
  C  C443  1  0.50320000  0.48800000  0.17510000  1.0
  C  C444  1  0.00950000  0.55620000  0.71330000  1.0
  C  C445  1  0.58660000  0.71400000  0.48320000  1.0
  C  C446  1  0.99620000  0.49230000  0.83280000  1.0
  C  C447  1  0.48300000  0.25990000  0.49180000  1.0
  C  C448  1  0.99170000  0.60230000  0.81970000  1.0
  C  C449  1  0.77770000  0.25317000  0.76723000  1.0
  C  C450  1  0.09660000  0.63930000  0.70040000  1.0
  C  C451  1  0.49690000  0.84700000  0.68170000  1.0
  C  C452  1  0.22230000  0.74683000  0.23277000  1.0
  C  C453  1  0.32320000  0.05860000  0.17450000  1.0
  C  C454  1  0.58660000  0.02000000  0.81130000  1.0
  C  C455  1  0.53880000  0.25870000  0.61540000  1.0
  C  C456  1  0.16400000  0.76120000  0.89390000  1.0
  C  C457  1  0.98880000  0.05750000  0.78540000  1.0
  C  C458  1  0.38900000  0.74440000  0.06560000  1.0
  C  C459  1  0.07040000  0.78550000  0.05660000  1.0
  C  C460  1  0.31560000  0.84710000  0.18170000  1.0
  C  C461  1  0.18870000  0.59940000  0.81230000  1.0
  C  C462  1  0.46310000  0.25960000  0.44890000  1.0
  C  C463  1  0.50350000  0.25920000  0.94920000  1.0
  C  C464  1  0.98160000  0.75650000  0.07250000  1.0
  C  C465  1  0.50840000  0.84770000  0.18670000  1.0
  C  C466  1  0.58840000  0.48490000  0.80990000  1.0
  C  C467  1  0.48440000  0.35230000  0.81040000  1.0
  C  C468  1  0.91340000  0.52000000  0.31130000  1.0
  C  C469  1  0.48130000  0.25740000  0.99150000  1.0
  C  C470  1  0.00830000  0.39770000  0.18030000  1.0
  C  C471  1  0.00320000  0.01200000  0.32490000  1.0
  C  C472  1  0.90510000  0.41730000  0.30390000  1.0
  C  C473  1  0.95230000  0.72970000  0.51580000  1.0
  C  C474  1  0.61100000  0.25560000  0.93440000  1.0
  C  C475  1  0.30300000  0.40380000  0.30770000  1.0
  C  C476  1  0.68440000  0.15290000  0.81830000  1.0
  C  C477  1  0.06280000  0.75850000  0.38310000  1.0
  C  C478  1  0.50380000  0.99230000  0.33280000  1.0
  C  C479  1  0.19380000  0.25000000  0.26820000  1.0
  C  C480  1  0.53400000  0.25260000  0.38470000  1.0
  C  C481  1  0.32320000  0.48990000  0.20680000  1.0
  C  C482  1  0.00980000  0.55880000  0.17070000  1.0
  C  C483  1  0.01840000  0.24350000  0.92750000  1.0
  C  C484  1  0.17660000  0.93890000  0.70960000  1.0
  C  C485  1  0.92310000  0.48150000  0.18710000  1.0
  C  C486  1  0.03400000  0.24740000  0.11530000  1.0
  C  C487  1  0.12990000  0.24950000  0.22960000  1.0
  C  C488  1  0.98440000  0.14770000  0.68960000  1.0
  C  C489  1  0.84360000  0.25031000  0.72809000  1.0
  C  C490  1  0.49170000  0.89770000  0.68030000  1.0
  C  C491  1  0.05800000  0.75180000  0.57240000  1.0
  C  C492  1  0.19090000  0.39820000  0.68250000  1.0
  C  C493  1  0.93720000  0.24150000  0.61690000  1.0
  C  C494  1  0.30910000  0.89820000  0.18250000  1.0
  C  C495  1  0.70040000  0.64740000  0.69060000  1.0
  C  C496  1  0.57220000  0.35850000  0.70240000  1.0
  C  C497  1  0.41600000  0.26100000  0.92350000  1.0
  C  C498  1  0.82080000  0.85150000  0.31490000  1.0
  C  C499  1  0.92450000  0.91370000  0.20070000  1.0
  C  C500  1  0.49180000  0.10190000  0.81320000  1.0
  C  C501  1  0.34850000  0.94030000  0.28800000  1.0
  C  C502  1  0.40340000  0.13930000  0.20040000  1.0
  C  C503  1  0.99160000  0.34770000  0.68670000  1.0
  C  C504  1  0.00250000  0.10010000  0.18990000  1.0
  C  C505  1  0.53690000  0.74040000  0.55110000  1.0
  C  C506  1  0.32540000  0.51300000  0.31820000  1.0
  C  C507  1  0.42450000  0.58630000  0.29930000  1.0
  C  C508  1  0.14630000  0.76210000  0.93340000  1.0
  C  C509  1  0.41310000  0.07360000  0.31450000  1.0
  C  C510  1  0.94990000  0.75500000  0.92490000  1.0
  C  C511  1  0.08690000  0.57360000  0.81450000  1.0
  N  N512  1  0.45620000  0.74474000  0.12966000  1.0
  N  N513  1  0.58770000  0.17800000  0.81600000  1.0
  N  N514  1  0.92010000  0.82680000  0.31290000  1.0
  N  N515  1  0.59610000  0.82340000  0.68390000  1.0
  N  N516  1  0.60640000  0.67500000  0.68780000  1.0
  N  N517  1  0.42010000  0.67320000  0.18710000  1.0
  N  N518  1  0.07990000  0.17320000  0.68710000  1.0
  N  N519  1  0.41230000  0.82200000  0.18400000  1.0
  N  N520  1  0.09610000  0.67660000  0.81610000  1.0
  N  N521  1  0.08770000  0.32200000  0.68400000  1.0
  N  N522  1  0.92830000  0.24520000  0.12970000  1.0
  N  N523  1  0.91230000  0.67800000  0.31600000  1.0
  N  N524  1  0.40390000  0.17660000  0.31610000  1.0
  N  N525  1  0.04380000  0.24474000  0.62966000  1.0
  N  N526  1  0.57990000  0.32680000  0.81290000  1.0
  N  N527  1  0.10640000  0.82500000  0.81220000  1.0
  N  N528  1  0.89360000  0.17500000  0.18780000  1.0
  N  N529  1  0.39360000  0.32500000  0.31220000  1.0
  N  N530  1  0.07170000  0.75480000  0.87030000  1.0
  N  N531  1  0.42830000  0.25480000  0.37030000  1.0
  N  N532  1  0.90390000  0.32340000  0.18390000  1.0
  N  N533  1  0.54380000  0.25526000  0.87034000  1.0
  N  N534  1  0.57170000  0.74520000  0.62970000  1.0
  N  N535  1  0.95620000  0.75526000  0.37034000  1.0
  O  O536  1  0.29270000  0.25543000  0.80137000  1.0
  O  O537  1  0.12320000  0.33810000  0.78240000  1.0
  O  O538  1  0.01500000  0.83780000  0.21760000  1.0
  O  O539  1  0.01730000  0.65980000  0.71740000  1.0
  O  O540  1  0.49870000  0.33420000  0.18610000  1.0
  O  O541  1  0.87860000  0.74727000  0.70013000  1.0
  O  O542  1  0.51500000  0.66220000  0.28240000  1.0
  O  O543  1  0.16690000  0.83490000  0.71400000  1.0
  O  O544  1  0.50210000  0.77360000  0.86560000  1.0
  O  O545  1  0.48500000  0.33780000  0.71760000  1.0
  O  O546  1  0.01850000  0.66210000  0.17810000  1.0
  O  O547  1  0.83250000  0.25315000  0.79845000  1.0
  O  O548  1  0.34160000  0.26980000  0.12970000  1.0
  O  O549  1  0.20730000  0.75543000  0.30137000  1.0
  O  O550  1  0.62320000  0.16190000  0.71760000  1.0
  O  O551  1  0.49790000  0.22640000  0.13440000  1.0
  O  O552  1  0.01870000  0.24620000  0.23400000  1.0
  O  O553  1  0.00210000  0.72640000  0.63440000  1.0
  O  O554  1  0.33250000  0.24685000  0.70155000  1.0
  O  O555  1  0.95140000  0.25225000  0.73245000  1.0
  O  O556  1  0.12510000  0.26340000  0.87150000  1.0
  O  O557  1  0.51730000  0.84020000  0.78260000  1.0
  O  O558  1  0.37490000  0.76340000  0.37150000  1.0
  O  O559  1  0.17260000  0.24740000  0.73510000  1.0
  O  O560  1  0.67260000  0.25260000  0.76490000  1.0
  O  O561  1  0.32740000  0.74740000  0.23510000  1.0
  O  O562  1  0.54860000  0.75225000  0.23245000  1.0
  O  O563  1  0.62140000  0.24727000  0.20013000  1.0
  O  O564  1  0.12140000  0.25273000  0.29987000  1.0
  O  O565  1  0.48270000  0.15980000  0.21740000  1.0
  O  O566  1  0.96690000  0.22140000  0.86400000  1.0
  O  O567  1  0.30100000  0.24515000  0.26585000  1.0
  O  O568  1  0.04860000  0.74775000  0.26755000  1.0
  O  O569  1  0.98270000  0.34020000  0.28260000  1.0
  O  O570  1  0.33310000  0.33490000  0.21400000  1.0
  O  O571  1  0.82740000  0.75260000  0.26490000  1.0
  O  O572  1  0.87680000  0.66190000  0.21760000  1.0
  O  O573  1  0.00130000  0.83420000  0.68610000  1.0
  O  O574  1  0.18140000  0.24869000  0.19941000  1.0
  O  O575  1  0.99870000  0.16580000  0.31390000  1.0
  O  O576  1  0.84160000  0.23020000  0.37030000  1.0
  O  O577  1  0.15460000  0.16630000  0.80850000  1.0
  O  O578  1  0.98150000  0.33790000  0.82190000  1.0
  O  O579  1  0.99790000  0.27360000  0.36560000  1.0
  O  O580  1  0.45140000  0.24775000  0.76755000  1.0
  O  O581  1  0.68140000  0.25131000  0.30059000  1.0
  O  O582  1  0.48130000  0.74620000  0.73400000  1.0
  O  O583  1  0.69900000  0.75485000  0.73415000  1.0
  O  O584  1  0.66750000  0.75315000  0.29845000  1.0
  O  O585  1  0.65460000  0.33370000  0.69150000  1.0
  O  O586  1  0.62510000  0.23660000  0.62850000  1.0
  O  O587  1  0.50130000  0.66580000  0.81390000  1.0
  O  O588  1  0.83310000  0.16510000  0.28600000  1.0
  O  O589  1  0.46690000  0.27860000  0.63600000  1.0
  O  O590  1  0.19900000  0.74515000  0.76585000  1.0
  O  O591  1  0.48150000  0.16210000  0.67810000  1.0
  O  O592  1  0.67750000  0.83820000  0.81550000  1.0
  O  O593  1  0.84540000  0.83370000  0.19150000  1.0
  O  O594  1  0.51870000  0.25380000  0.26600000  1.0
  O  O595  1  0.65840000  0.73020000  0.87030000  1.0
  O  O596  1  0.34540000  0.66630000  0.30850000  1.0
  O  O597  1  0.98130000  0.75380000  0.76600000  1.0
  O  O598  1  0.70730000  0.74457000  0.19863000  1.0
  O  O599  1  0.81860000  0.75131000  0.80059000  1.0
  O  O600  1  0.53310000  0.72140000  0.36400000  1.0
  O  O601  1  0.37860000  0.75273000  0.79987000  1.0
  O  O602  1  0.31860000  0.74869000  0.69941000  1.0
  O  O603  1  0.98500000  0.16220000  0.78240000  1.0
  O  O604  1  0.66690000  0.66510000  0.78600000  1.0
  O  O605  1  0.16750000  0.74685000  0.20155000  1.0
  O  O606  1  0.32250000  0.16180000  0.18450000  1.0
  O  O607  1  0.87490000  0.73660000  0.12850000  1.0
  O  O608  1  0.80100000  0.25485000  0.23415000  1.0
  O  O609  1  0.79270000  0.24457000  0.69863000  1.0
  O  O610  1  0.03310000  0.77860000  0.13600000  1.0
  O  O611  1  0.17750000  0.66180000  0.68450000  1.0
  O  O612  1  0.15840000  0.76980000  0.62970000  1.0
  O  O613  1  0.82250000  0.33820000  0.31550000  1.0
  O  O614  1  0.37680000  0.83810000  0.28240000  1.0
  O  O615  1  0.51850000  0.83790000  0.32190000  1.0
