# generated using pymatgen
data_Zn4H20C39N2O17
_symmetry_space_group_name_H-M   'P 1'
_cell_length_a   10.33710000
_cell_length_b   31.93900000
_cell_length_c   31.98800000
_cell_angle_alpha   90.00000000
_cell_angle_beta   90.00000000
_cell_angle_gamma   91.93700000
_symmetry_Int_Tables_number   1
_chemical_formula_structural   Zn4H20C39N2O17
_chemical_formula_sum   'Zn16 H80 C156 N8 O68'
_cell_volume   10555.01588382
_cell_formula_units_Z   4
loop_
 _symmetry_equiv_pos_site_id
 _symmetry_equiv_pos_as_xyz
  1  'x, y, z'
loop_
 _atom_site_type_symbol
 _atom_site_label
 _atom_site_symmetry_multiplicity
 _atom_site_fract_x
 _atom_site_fract_y
 _atom_site_fract_z
 _atom_site_occupancy
  Zn  Zn0  1  0.46984000  0.13249000  0.80010000  1.0
  Zn  Zn1  1  0.66805000  0.78361000  0.21775000  1.0
  Zn  Zn2  1  0.37696000  0.77836000  0.21206000  1.0
  Zn  Zn3  1  0.02576000  0.29728000  0.37133000  1.0
  Zn  Zn4  1  0.97424000  0.70272000  0.62867000  1.0
  Zn  Zn5  1  0.53016000  0.86751000  0.19990000  1.0
  Zn  Zn6  1  0.87696000  0.27836000  0.28794000  1.0
  Zn  Zn7  1  0.52576000  0.79728000  0.12867000  1.0
  Zn  Zn8  1  0.83195000  0.71639000  0.71775000  1.0
  Zn  Zn9  1  0.47424000  0.20272000  0.87133000  1.0
  Zn  Zn10  1  0.33195000  0.21639000  0.78225000  1.0
  Zn  Zn11  1  0.16805000  0.28361000  0.28225000  1.0
  Zn  Zn12  1  0.03016000  0.36751000  0.30010000  1.0
  Zn  Zn13  1  0.12304000  0.72164000  0.71206000  1.0
  Zn  Zn14  1  0.62304000  0.22164000  0.78794000  1.0
  Zn  Zn15  1  0.96984000  0.63249000  0.69990000  1.0
  H  H16  1  0.94210000  0.74470000  0.98630000  1.0
  H  H17  1  0.98090000  0.47930000  0.56720000  1.0
  H  H18  1  0.28390000  0.08850000  0.24490000  1.0
  H  H19  1  0.44210000  0.24470000  0.51370000  1.0
  H  H20  1  0.51240000  0.06870000  0.02130000  1.0
  H  H21  1  0.53660000  0.97090000  0.11660000  1.0
  H  H22  1  0.39090000  0.63810000  0.20970000  1.0
  H  H23  1  0.01240000  0.56870000  0.47870000  1.0
  H  H24  1  0.03460000  0.99020000  0.74600000  1.0
  H  H25  1  0.99390000  0.61800000  0.52760000  1.0
  H  H26  1  0.82960000  0.75340000  0.04550000  1.0
  H  H27  1  0.76560000  0.05070000  0.75570000  1.0
  H  H28  1  0.21610000  0.41150000  0.74490000  1.0
  H  H29  1  0.76990000  0.24920000  0.59230000  1.0
  H  H30  1  0.28460000  0.75070000  0.54860000  1.0
  H  H31  1  0.53020000  0.33970000  0.27030000  1.0
  H  H32  1  0.63920000  0.78610000  0.35640000  1.0
  H  H33  1  0.34580000  0.44740000  0.25270000  1.0
  H  H34  1  0.03020000  0.83970000  0.22970000  1.0
  H  H35  1  0.49390000  0.11800000  0.97240000  1.0
  H  H36  1  0.91520000  0.06660000  0.27900000  1.0
  H  H37  1  0.96980000  0.16030000  0.77030000  1.0
  H  H38  1  0.41520000  0.56660000  0.22100000  1.0
  H  H39  1  0.05790000  0.25530000  0.01370000  1.0
  H  H40  1  0.13920000  0.28610000  0.14360000  1.0
  H  H41  1  0.76300000  0.66050000  0.24170000  1.0
  H  H42  1  0.46340000  0.02910000  0.88340000  1.0
  H  H43  1  0.23010000  0.75080000  0.40770000  1.0
  H  H44  1  0.76200000  0.25890000  0.16390000  1.0
  H  H45  1  0.73700000  0.83950000  0.74170000  1.0
  H  H46  1  0.73010000  0.25080000  0.09230000  1.0
  H  H47  1  0.84580000  0.94740000  0.24730000  1.0
  H  H48  1  0.58480000  0.43340000  0.77900000  1.0
  H  H49  1  0.36080000  0.21390000  0.64360000  1.0
  H  H50  1  0.98070000  0.23360000  0.84460000  1.0
  H  H51  1  0.00610000  0.38200000  0.47240000  1.0
  H  H52  1  0.89090000  0.13810000  0.29030000  1.0
  H  H53  1  0.67040000  0.74660000  0.54550000  1.0
  H  H54  1  0.89070000  0.72240000  0.92750000  1.0
  H  H55  1  0.60930000  0.77760000  0.42750000  1.0
  H  H56  1  0.96540000  0.00980000  0.25400000  1.0
  H  H57  1  0.51930000  0.26640000  0.34460000  1.0
  H  H58  1  0.55790000  0.75530000  0.48630000  1.0
  H  H59  1  0.71540000  0.24930000  0.45140000  1.0
  H  H60  1  0.73800000  0.24110000  0.66390000  1.0
  H  H61  1  0.98760000  0.43130000  0.52130000  1.0
  H  H62  1  0.10930000  0.27760000  0.07250000  1.0
  H  H63  1  0.26990000  0.74920000  0.90770000  1.0
  H  H64  1  0.48090000  0.97930000  0.93280000  1.0
  H  H65  1  0.26200000  0.75890000  0.33610000  1.0
  H  H66  1  0.26300000  0.16050000  0.25830000  1.0
  H  H67  1  0.71610000  0.91150000  0.75510000  1.0
  H  H68  1  0.03660000  0.47090000  0.38340000  1.0
  H  H69  1  0.32960000  0.25340000  0.45450000  1.0
  H  H70  1  0.60910000  0.36190000  0.79030000  1.0
  H  H71  1  0.23800000  0.74110000  0.83610000  1.0
  H  H72  1  0.10910000  0.86190000  0.70970000  1.0
  H  H73  1  0.01910000  0.52070000  0.43280000  1.0
  H  H74  1  0.48760000  0.93130000  0.97870000  1.0
  H  H75  1  0.01930000  0.76640000  0.15540000  1.0
  H  H76  1  0.50610000  0.88200000  0.02760000  1.0
  H  H77  1  0.21540000  0.74930000  0.04860000  1.0
  H  H78  1  0.96340000  0.52910000  0.61660000  1.0
  H  H79  1  0.39070000  0.22240000  0.57250000  1.0
  H  H80  1  0.23700000  0.33950000  0.75830000  1.0
  H  H81  1  0.65420000  0.55260000  0.74730000  1.0
  H  H82  1  0.78390000  0.58850000  0.25510000  1.0
  H  H83  1  0.73440000  0.44930000  0.25570000  1.0
  H  H84  1  0.78460000  0.25070000  0.95140000  1.0
  H  H85  1  0.26560000  0.55070000  0.74430000  1.0
  H  H86  1  0.17040000  0.24660000  0.95450000  1.0
  H  H87  1  0.51910000  0.02070000  0.06720000  1.0
  H  H88  1  0.46980000  0.66030000  0.72970000  1.0
  H  H89  1  0.08480000  0.93340000  0.72100000  1.0
  H  H90  1  0.23440000  0.94930000  0.24430000  1.0
  H  H91  1  0.46540000  0.50980000  0.24600000  1.0
  H  H92  1  0.86080000  0.71390000  0.85640000  1.0
  H  H93  1  0.48070000  0.73360000  0.65540000  1.0
  H  H94  1  0.53460000  0.49020000  0.75400000  1.0
  H  H95  1  0.15420000  0.05260000  0.75270000  1.0
  C  C96  1  0.03298000  0.86863000  0.23348000  1.0
  C  C97  1  0.03970000  0.27383000  0.09068000  1.0
  C  C98  1  0.94280000  0.72092000  0.86672000  1.0
  C  C99  1  0.19270000  0.14187000  0.26181000  1.0
  C  C100  1  0.13757000  0.75293000  0.06249000  1.0
  C  C101  1  0.99210000  0.58988000  0.53521000  1.0
  C  C102  1  0.70580000  0.59835000  0.24544000  1.0
  C  C103  1  0.08069000  0.10928000  0.76313000  1.0
  C  C104  1  0.39470000  0.42870000  0.76164000  1.0
  C  C105  1  0.77450000  0.36960000  0.27312000  1.0
  C  C106  1  0.68800000  0.24234000  0.60269000  1.0
  C  C107  1  0.63757000  0.25293000  0.43751000  1.0
  C  C108  1  0.53840000  0.45536000  0.25267000  1.0
  C  C109  1  0.50440000  0.98299000  0.01632000  1.0
  C  C110  1  0.97660000  0.24841000  0.95961000  1.0
  C  C111  1  0.86243000  0.24707000  0.93751000  1.0
  C  C112  1  0.97070000  0.61218000  0.61008000  1.0
  C  C113  1  0.07270000  0.15621000  0.27426000  1.0
  C  C114  1  0.40647000  0.25531000  0.43936000  1.0
  C  C115  1  0.40320000  0.26196000  0.39568000  1.0
  C  C116  1  0.45500000  0.77404000  0.33934000  1.0
  C  C117  1  0.52060000  0.92136000  0.07672000  1.0
  C  C118  1  0.33100000  0.76284000  0.35455000  1.0
  C  C119  1  0.42280000  0.43343000  0.25568000  1.0
  C  C120  1  0.80730000  0.85813000  0.73819000  1.0
  C  C121  1  0.95500000  0.27404000  0.16066000  1.0
  C  C122  1  0.99850000  0.43934000  0.49356000  1.0
  C  C123  1  0.93410000  0.79722000  0.71878000  1.0
  C  C124  1  0.75942000  0.26403000  0.37024000  1.0
  C  C125  1  0.78030000  0.76946000  0.12722000  1.0
  C  C126  1  0.47940000  0.07864000  0.92328000  1.0
  C  C127  1  0.63760000  0.25970000  0.39459000  1.0
  C  C128  1  0.00150000  0.56066000  0.50644000  1.0
  C  C129  1  0.74058000  0.23597000  0.87024000  1.0
  C  C130  1  0.02060000  0.42136000  0.42328000  1.0
  C  C131  1  0.22550000  0.63040000  0.72688000  1.0
  C  C132  1  0.56590000  0.70278000  0.21878000  1.0
  C  C133  1  0.15560000  0.93445000  0.24277000  1.0
  C  C134  1  0.50150000  0.06066000  0.99356000  1.0
  C  C135  1  0.91780000  0.26294000  0.07538000  1.0
  C  C136  1  0.04500000  0.72596000  0.83934000  1.0
  C  C137  1  0.53970000  0.77383000  0.40932000  1.0
  C  C138  1  0.49560000  0.01701000  0.98368000  1.0
  C  C139  1  0.25942000  0.76403000  0.12976000  1.0
  C  C140  1  0.02930000  0.38782000  0.38992000  1.0
  C  C141  1  0.84440000  0.06555000  0.75723000  1.0
  C  C142  1  0.96160000  0.04464000  0.75267000  1.0
  C  C143  1  0.07720000  0.06657000  0.75568000  1.0
  C  C144  1  0.72550000  0.13040000  0.77312000  1.0
  C  C145  1  0.15210000  0.89131000  0.23589000  1.0
  C  C146  1  0.57270000  0.65621000  0.22574000  1.0
  C  C147  1  0.01560000  0.91452000  0.72526000  1.0
  C  C148  1  0.47660000  0.74841000  0.54039000  1.0
  C  C149  1  0.05720000  0.27908000  0.13328000  1.0
  C  C150  1  0.53010000  0.37167000  0.78125000  1.0
  C  C151  1  0.92730000  0.84379000  0.72574000  1.0
  C  C152  1  0.36243000  0.74707000  0.56249000  1.0
  C  C153  1  0.70520000  0.63321000  0.73238000  1.0
  C  C154  1  0.86240000  0.24030000  0.89459000  1.0
  C  C155  1  0.10530000  0.07130000  0.26164000  1.0
  C  C156  1  0.00790000  0.41012000  0.46479000  1.0
  C  C157  1  0.38610000  0.75908000  0.47004000  1.0
  C  C158  1  0.59353000  0.74469000  0.56064000  1.0
  C  C159  1  0.65210000  0.39131000  0.26411000  1.0
  C  C160  1  0.98440000  0.08548000  0.27474000  1.0
  C  C161  1  0.27450000  0.86960000  0.22688000  1.0
  C  C162  1  0.24058000  0.73597000  0.62976000  1.0
  C  C163  1  0.36610000  0.47431000  0.75931000  1.0
  C  C164  1  0.55720000  0.77908000  0.36672000  1.0
  C  C165  1  0.09353000  0.24469000  0.93936000  1.0
  C  C166  1  0.03010000  0.87167000  0.71875000  1.0
  C  C167  1  0.92280000  0.93343000  0.24432000  1.0
  C  C168  1  0.84790000  0.10869000  0.76411000  1.0
  C  C169  1  0.03840000  0.95536000  0.24733000  1.0
  C  C170  1  0.46030000  0.22617000  0.59068000  1.0
  C  C171  1  0.41931000  0.39072000  0.26313000  1.0
  C  C172  1  0.46160000  0.54464000  0.74733000  1.0
  C  C173  1  0.51710000  0.99274000  0.05915000  1.0
  C  C174  1  0.42730000  0.34379000  0.77426000  1.0
  C  C175  1  0.29420000  0.40165000  0.75456000  1.0
  C  C176  1  0.44280000  0.22092000  0.63328000  1.0
  C  C177  1  0.52930000  0.88782000  0.11008000  1.0
  C  C178  1  0.51990000  0.26323000  0.37354000  1.0
  C  C179  1  0.43410000  0.29722000  0.78122000  1.0
  C  C180  1  0.97360000  0.53656000  0.58862000  1.0
  C  C181  1  0.46702000  0.63137000  0.73348000  1.0
  C  C182  1  0.01710000  0.49274000  0.44085000  1.0
  C  C183  1  0.34440000  0.56555000  0.74277000  1.0
  C  C184  1  0.69270000  0.64187000  0.23819000  1.0
  C  C185  1  0.58220000  0.23706000  0.57538000  1.0
  C  C186  1  0.34790000  0.60869000  0.73589000  1.0
  C  C187  1  0.63390000  0.52569000  0.24069000  1.0
  C  C188  1  0.08220000  0.73706000  0.92462000  1.0
  C  C189  1  0.52690000  0.22146000  0.70710000  1.0
  C  C190  1  0.59680000  0.73804000  0.60432000  1.0
  C  C191  1  0.57720000  0.56657000  0.74432000  1.0
  C  C192  1  0.20580000  0.09835000  0.25456000  1.0
  C  C193  1  0.41780000  0.76294000  0.42462000  1.0
  C  C194  1  0.18800000  0.74234000  0.89731000  1.0
  C  C195  1  0.21970000  0.23054000  0.87278000  1.0
  C  C196  1  0.20520000  0.13321000  0.76762000  1.0
  C  C197  1  0.60530000  0.57130000  0.23836000  1.0
  C  C198  1  0.47070000  0.11218000  0.88992000  1.0
  C  C199  1  0.51560000  0.41452000  0.77474000  1.0
  C  C200  1  0.47360000  0.03656000  0.91138000  1.0
  C  C201  1  0.02640000  0.46344000  0.41138000  1.0
  C  C202  1  0.96030000  0.72617000  0.90932000  1.0
  C  C203  1  0.01990000  0.76323000  0.12646000  1.0
  C  C204  1  0.83100000  0.26284000  0.14545000  1.0
  C  C205  1  0.98010000  0.23677000  0.87354000  1.0
  C  C206  1  0.48290000  0.00726000  0.94085000  1.0
  C  C207  1  0.49210000  0.08988000  0.96479000  1.0
  C  C208  1  0.06590000  0.20278000  0.28122000  1.0
  C  C209  1  0.47310000  0.77854000  0.29290000  1.0
  C  C210  1  0.86610000  0.97431000  0.74069000  1.0
  C  C211  1  0.91931000  0.89072000  0.23687000  1.0
  C  C212  1  0.46990000  0.62833000  0.21875000  1.0
  C  C213  1  0.98290000  0.50726000  0.55915000  1.0
  C  C214  1  0.48010000  0.73677000  0.62646000  1.0
  C  C215  1  0.30730000  0.35813000  0.76181000  1.0
  C  C216  1  0.97310000  0.27854000  0.20710000  1.0
  C  C217  1  0.00440000  0.48299000  0.48368000  1.0
  C  C218  1  0.54500000  0.22596000  0.66066000  1.0
  C  C219  1  0.52340000  0.25159000  0.45961000  1.0
  C  C220  1  0.96990000  0.12833000  0.28125000  1.0
  C  C221  1  0.52640000  0.96344000  0.08862000  1.0
  C  C222  1  0.16900000  0.73716000  0.85455000  1.0
  C  C223  1  0.02340000  0.75159000  0.04039000  1.0
  C  C224  1  0.13390000  0.02569000  0.25931000  1.0
  C  C225  1  0.79480000  0.86679000  0.23238000  1.0
  C  C226  1  0.96702000  0.13137000  0.76652000  1.0
  C  C227  1  0.89470000  0.92870000  0.73836000  1.0
  C  C228  1  0.99560000  0.51701000  0.51632000  1.0
  C  C229  1  0.66900000  0.23716000  0.64545000  1.0
  C  C230  1  0.79420000  0.90165000  0.74544000  1.0
  C  C231  1  0.09680000  0.23804000  0.89568000  1.0
  C  C232  1  0.28030000  0.26946000  0.37278000  1.0
  C  C233  1  0.81200000  0.25766000  0.10269000  1.0
  C  C234  1  0.49850000  0.93934000  0.00644000  1.0
  C  C235  1  0.13760000  0.75970000  0.10541000  1.0
  C  C236  1  0.31200000  0.75766000  0.39731000  1.0
  C  C237  1  0.48440000  0.58548000  0.22526000  1.0
  C  C238  1  0.88610000  0.25908000  0.02996000  1.0
  C  C239  1  0.65560000  0.43445000  0.25723000  1.0
  C  C240  1  0.90647000  0.75531000  0.06064000  1.0
  C  C241  1  0.97940000  0.57864000  0.57672000  1.0
  C  C242  1  0.58069000  0.60928000  0.73687000  1.0
  C  C243  1  0.11390000  0.74092000  0.97004000  1.0
  C  C244  1  0.36240000  0.74030000  0.60541000  1.0
  C  C245  1  0.71970000  0.73054000  0.62722000  1.0
  C  C246  1  0.29480000  0.36679000  0.26762000  1.0
  C  C247  1  0.90320000  0.76196000  0.10432000  1.0
  C  C248  1  0.02690000  0.72146000  0.79290000  1.0
  C  C249  1  0.50790000  0.91012000  0.03521000  1.0
  C  C250  1  0.53298000  0.36863000  0.26652000  1.0
  C  C251  1  0.61390000  0.24092000  0.52996000  1.0
  N  N252  1  0.54062000  0.49916000  0.24623000  1.0
  N  N253  1  0.98150000  0.25445000  0.00302000  1.0
  N  N254  1  0.04062000  0.99916000  0.25377000  1.0
  N  N255  1  0.48150000  0.75445000  0.49698000  1.0
  N  N256  1  0.01850000  0.74555000  0.99698000  1.0
  N  N257  1  0.95938000  0.00084000  0.74623000  1.0
  N  N258  1  0.45938000  0.50084000  0.75377000  1.0
  N  N259  1  0.51850000  0.24555000  0.50302000  1.0
  O  O260  1  0.75260000  0.51517000  0.24083000  1.0
  O  O261  1  0.78756000  0.77309000  0.16525000  1.0
  O  O262  1  0.82107000  0.72866000  0.60539000  1.0
  O  O263  1  0.57614000  0.79150000  0.27949000  1.0
  O  O264  1  0.69293000  0.88730000  0.22577000  1.0
  O  O265  1  0.62224000  0.11025000  0.77282000  1.0
  O  O266  1  0.24870000  0.73874000  0.66866000  1.0
  O  O267  1  0.52480000  0.85083000  0.09795000  1.0
  O  O268  1  0.32107000  0.22866000  0.89461000  1.0
  O  O269  1  0.03773000  0.78360000  0.70575000  1.0
  O  O270  1  0.47520000  0.14917000  0.90205000  1.0
  O  O271  1  0.63842000  0.22937000  0.89043000  1.0
  O  O272  1  0.29850000  0.32775000  0.26566000  1.0
  O  O273  1  0.46227000  0.71640000  0.20575000  1.0
  O  O274  1  0.67893000  0.77134000  0.10539000  1.0
  O  O275  1  0.22532000  0.73489000  0.98319000  1.0
  O  O276  1  0.16364000  0.22343000  0.27045000  1.0
  O  O277  1  0.92386000  0.70850000  0.77949000  1.0
  O  O278  1  0.75130000  0.26126000  0.33134000  1.0
  O  O279  1  0.62393000  0.23212000  0.72787000  1.0
  O  O280  1  0.07614000  0.29150000  0.22051000  1.0
  O  O281  1  0.71244000  0.72691000  0.66525000  1.0
  O  O282  1  0.02480000  0.35083000  0.40205000  1.0
  O  O283  1  0.19293000  0.38730000  0.27423000  1.0
  O  O284  1  0.13842000  0.72937000  0.60957000  1.0
  O  O285  1  0.25130000  0.76126000  0.16866000  1.0
  O  O286  1  0.73824000  0.16929000  0.77874000  1.0
  O  O287  1  0.17893000  0.27134000  0.39461000  1.0
  O  O288  1  0.23824000  0.66929000  0.72126000  1.0
  O  O289  1  0.70150000  0.67225000  0.73434000  1.0
  O  O290  1  0.74870000  0.23874000  0.83134000  1.0
  O  O291  1  0.37607000  0.76788000  0.27213000  1.0
  O  O292  1  0.42386000  0.20850000  0.72051000  1.0
  O  O293  1  0.03242000  0.39955000  0.35279000  1.0
  O  O294  1  0.96758000  0.60045000  0.64721000  1.0
  O  O295  1  0.87776000  0.38975000  0.27282000  1.0
  O  O296  1  0.53242000  0.89955000  0.14721000  1.0
  O  O297  1  0.21244000  0.22691000  0.83475000  1.0
  O  O298  1  0.86158000  0.27063000  0.39043000  1.0
  O  O299  1  0.25260000  0.01517000  0.25917000  1.0
  O  O300  1  0.28756000  0.27309000  0.33475000  1.0
  O  O301  1  0.97494000  0.69148000  0.68739000  1.0
  O  O302  1  0.79850000  0.82775000  0.23434000  1.0
  O  O303  1  0.76176000  0.33071000  0.27874000  1.0
  O  O304  1  0.66364000  0.72343000  0.22955000  1.0
  O  O305  1  0.97520000  0.64917000  0.59795000  1.0
  O  O306  1  0.26176000  0.83071000  0.22126000  1.0
  O  O307  1  0.87607000  0.26788000  0.22787000  1.0
  O  O308  1  0.46758000  0.10045000  0.85279000  1.0
  O  O309  1  0.02506000  0.30852000  0.31261000  1.0
  O  O310  1  0.30707000  0.11270000  0.77423000  1.0
  O  O311  1  0.20150000  0.17225000  0.76566000  1.0
  O  O312  1  0.52506000  0.80852000  0.18739000  1.0
  O  O313  1  0.77468000  0.26511000  0.01681000  1.0
  O  O314  1  0.37776000  0.88975000  0.22718000  1.0
  O  O315  1  0.36158000  0.77063000  0.10957000  1.0
  O  O316  1  0.12224000  0.61025000  0.72718000  1.0
  O  O317  1  0.72532000  0.23489000  0.51681000  1.0
  O  O318  1  0.12393000  0.73212000  0.77213000  1.0
  O  O319  1  0.83636000  0.77657000  0.72955000  1.0
  O  O320  1  0.24740000  0.48483000  0.75917000  1.0
  O  O321  1  0.33636000  0.27657000  0.77045000  1.0
  O  O322  1  0.74740000  0.98483000  0.74083000  1.0
  O  O323  1  0.96227000  0.21640000  0.29425000  1.0
  O  O324  1  0.53773000  0.28360000  0.79425000  1.0
  O  O325  1  0.47494000  0.19148000  0.81261000  1.0
  O  O326  1  0.80707000  0.61270000  0.72577000  1.0
  O  O327  1  0.27468000  0.76511000  0.48319000  1.0
