# generated using pymatgen
data_Zr3H26(C21O8)2
_symmetry_space_group_name_H-M   'P 1'
_cell_length_a   26.52000000
_cell_length_b   26.52000000
_cell_length_c   26.52000000
_cell_angle_alpha   90.00000000
_cell_angle_beta   90.00000000
_cell_angle_gamma   90.00000000
_symmetry_Int_Tables_number   1
_chemical_formula_structural   Zr3H26(C21O8)2
_chemical_formula_sum   'Zr24 H208 C336 O128'
_cell_volume   18651.79180800
_cell_formula_units_Z   8
loop_
 _symmetry_equiv_pos_site_id
 _symmetry_equiv_pos_as_xyz
  1  'x, y, z'
loop_
 _atom_site_type_symbol
 _atom_site_label
 _atom_site_symmetry_multiplicity
 _atom_site_fract_x
 _atom_site_fract_y
 _atom_site_fract_z
 _atom_site_occupancy
  Zr  Zr0  1  0.99963000  0.08878000  0.00021000  1.0
  Zr  Zr1  1  0.91130000  0.99967000  0.00013000  1.0
  Zr  Zr2  1  0.08878000  0.00042000  0.99999000  1.0
  Zr  Zr3  1  0.00004000  0.00026000  0.91129000  1.0
  Zr  Zr4  1  0.00013000  0.99978000  0.08878000  1.0
  Zr  Zr5  1  0.00048000  0.91126000  0.99988000  1.0
  Zr  Zr6  1  0.50061000  0.58876000  0.00031000  1.0
  Zr  Zr7  1  0.41128000  0.50054000  0.99987000  1.0
  Zr  Zr8  1  0.58877000  0.49935000  0.00025000  1.0
  Zr  Zr9  1  0.50021000  0.50043000  0.91126000  1.0
  Zr  Zr10  1  0.49988000  0.49964000  0.08872000  1.0
  Zr  Zr11  1  0.49938000  0.41124000  0.99952000  1.0
  Zr  Zr12  1  0.00030000  0.58874000  0.49973000  1.0
  Zr  Zr13  1  0.91121000  0.50021000  0.49993000  1.0
  Zr  Zr14  1  0.08876000  0.49974000  0.50000000  1.0
  Zr  Zr15  1  0.00000000  0.49982000  0.41123000  1.0
  Zr  Zr16  1  0.99993000  0.50027000  0.58872000  1.0
  Zr  Zr17  1  0.99968000  0.41128000  0.50014000  1.0
  Zr  Zr18  1  0.49962000  0.08874000  0.49970000  1.0
  Zr  Zr19  1  0.41123000  0.99968000  0.50005000  1.0
  Zr  Zr20  1  0.58876000  0.00032000  0.50002000  1.0
  Zr  Zr21  1  0.49994000  0.99958000  0.41129000  1.0
  Zr  Zr22  1  0.49996000  0.00044000  0.58879000  1.0
  Zr  Zr23  1  0.50037000  0.91128000  0.50046000  1.0
  H  H24  1  0.93262000  0.06695000  0.93313000  1.0
  H  H25  1  0.06687000  0.06726000  0.06723000  1.0
  H  H26  1  0.06739000  0.93337000  0.93277000  1.0
  H  H27  1  0.93329000  0.93250000  0.06702000  1.0
  H  H28  1  0.43344000  0.56776000  0.93308000  1.0
  H  H29  1  0.56743000  0.56641000  0.06745000  1.0
  H  H30  1  0.56682000  0.43277000  0.93273000  1.0
  H  H31  1  0.43242000  0.43303000  0.06669000  1.0
  H  H32  1  0.93308000  0.56714000  0.43274000  1.0
  H  H33  1  0.06726000  0.56705000  0.56693000  1.0
  H  H34  1  0.06690000  0.43259000  0.43306000  1.0
  H  H35  1  0.93269000  0.43328000  0.56721000  1.0
  H  H36  1  0.43264000  0.06654000  0.43269000  1.0
  H  H37  1  0.56687000  0.06762000  0.56681000  1.0
  H  H38  1  0.56732000  0.93289000  0.43321000  1.0
  H  H39  1  0.43316000  0.93295000  0.56744000  1.0
  H  H40  1  0.10408000  0.21445000  0.97012000  1.0
  H  H41  1  0.21429000  0.10628000  0.02182000  1.0
  H  H42  1  0.39421000  0.28659000  0.97025000  1.0
  H  H43  1  0.28411000  0.39595000  0.01972000  1.0
  H  H44  1  0.27880000  0.17161000  0.02121000  1.0
  H  H45  1  0.32907000  0.22185000  0.96835000  1.0
  H  H46  1  0.16902000  0.27947000  0.96774000  1.0
  H  H47  1  0.21934000  0.33083000  0.01961000  1.0
  H  H48  1  0.10577000  0.71447000  0.52129000  1.0
  H  H49  1  0.21446000  0.60439000  0.47038000  1.0
  H  H50  1  0.39544000  0.78452000  0.52117000  1.0
  H  H51  1  0.28638000  0.89459000  0.47104000  1.0
  H  H52  1  0.27940000  0.66942000  0.46844000  1.0
  H  H53  1  0.33031000  0.71975000  0.52075000  1.0
  H  H54  1  0.17102000  0.77906000  0.52114000  1.0
  H  H55  1  0.22163000  0.82946000  0.46883000  1.0
  H  H56  1  0.78547000  0.89414000  0.02049000  1.0
  H  H57  1  0.89612000  0.78525000  0.97125000  1.0
  H  H58  1  0.71572000  0.60434000  0.02178000  1.0
  H  H59  1  0.60593000  0.71308000  0.97036000  1.0
  H  H60  1  0.83120000  0.72021000  0.96927000  1.0
  H  H61  1  0.78049000  0.66950000  0.02134000  1.0
  H  H62  1  0.72101000  0.82881000  0.02032000  1.0
  H  H63  1  0.67106000  0.77782000  0.96809000  1.0
  H  H64  1  0.78556000  0.39568000  0.47067000  1.0
  H  H65  1  0.89424000  0.28533000  0.52105000  1.0
  H  H66  1  0.71357000  0.10545000  0.46988000  1.0
  H  H67  1  0.60461000  0.21535000  0.52059000  1.0
  H  H68  1  0.82900000  0.22073000  0.52048000  1.0
  H  H69  1  0.77835000  0.17059000  0.46786000  1.0
  H  H70  1  0.72065000  0.33065000  0.46831000  1.0
  H  H71  1  0.66974000  0.28010000  0.52036000  1.0
  H  H72  1  0.78540000  0.10400000  0.02951000  1.0
  H  H73  1  0.89400000  0.21447000  0.97925000  1.0
  H  H74  1  0.71310000  0.39408000  0.02986000  1.0
  H  H75  1  0.60429000  0.28418000  0.97879000  1.0
  H  H76  1  0.82864000  0.27894000  0.97953000  1.0
  H  H77  1  0.77785000  0.32897000  0.03209000  1.0
  H  H78  1  0.72033000  0.16891000  0.03155000  1.0
  H  H79  1  0.66946000  0.21942000  0.97926000  1.0
  H  H80  1  0.78632000  0.60537000  0.52936000  1.0
  H  H81  1  0.89533000  0.71533000  0.47888000  1.0
  H  H82  1  0.71458000  0.89569000  0.52971000  1.0
  H  H83  1  0.60576000  0.78557000  0.47917000  1.0
  H  H84  1  0.83027000  0.78015000  0.47940000  1.0
  H  H85  1  0.77948000  0.83060000  0.53171000  1.0
  H  H86  1  0.72162000  0.67057000  0.53167000  1.0
  H  H87  1  0.67094000  0.72094000  0.47939000  1.0
  H  H88  1  0.21363000  0.39452000  0.52994000  1.0
  H  H89  1  0.10466000  0.28479000  0.47889000  1.0
  H  H90  1  0.28539000  0.10425000  0.52881000  1.0
  H  H91  1  0.39425000  0.21459000  0.47881000  1.0
  H  H92  1  0.16974000  0.22000000  0.47905000  1.0
  H  H93  1  0.22051000  0.16931000  0.53107000  1.0
  H  H94  1  0.27837000  0.32933000  0.53189000  1.0
  H  H95  1  0.32906000  0.27922000  0.47929000  1.0
  H  H96  1  0.21531000  0.89544000  0.97792000  1.0
  H  H97  1  0.10595000  0.78677000  0.03039000  1.0
  H  H98  1  0.28560000  0.60590000  0.97993000  1.0
  H  H99  1  0.39626000  0.71509000  0.02849000  1.0
  H  H100  1  0.17122000  0.72214000  0.03260000  1.0
  H  H101  1  0.22103000  0.67111000  0.98018000  1.0
  H  H102  1  0.28020000  0.83042000  0.97835000  1.0
  H  H103  1  0.33122000  0.78003000  0.03054000  1.0
  H  H104  1  0.02049000  0.10478000  0.21531000  1.0
  H  H105  1  0.97029000  0.21382000  0.10524000  1.0
  H  H106  1  0.02110000  0.39440000  0.28535000  1.0
  H  H107  1  0.97000000  0.28577000  0.39541000  1.0
  H  H108  1  0.96824000  0.27861000  0.17037000  1.0
  H  H109  1  0.02078000  0.32917000  0.22074000  1.0
  H  H110  1  0.02021000  0.16992000  0.28004000  1.0
  H  H111  1  0.96793000  0.22086000  0.33037000  1.0
  H  H112  1  0.46931000  0.28672000  0.89424000  1.0
  H  H113  1  0.52089000  0.39547000  0.78452000  1.0
  H  H114  1  0.47056000  0.21468000  0.60407000  1.0
  H  H115  1  0.52026000  0.10587000  0.71461000  1.0
  H  H116  1  0.52054000  0.33035000  0.71975000  1.0
  H  H117  1  0.46836000  0.27965000  0.66905000  1.0
  H  H118  1  0.46719000  0.22198000  0.82908000  1.0
  H  H119  1  0.51982000  0.17114000  0.77915000  1.0
  H  H120  1  0.02057000  0.78507000  0.89467000  1.0
  H  H121  1  0.97216000  0.89574000  0.78543000  1.0
  H  H122  1  0.02238000  0.71501000  0.60498000  1.0
  H  H123  1  0.96980000  0.60554000  0.71349000  1.0
  H  H124  1  0.97004000  0.83072000  0.72052000  1.0
  H  H125  1  0.02220000  0.77975000  0.67014000  1.0
  H  H126  1  0.02024000  0.72046000  0.82945000  1.0
  H  H127  1  0.96784000  0.67068000  0.77828000  1.0
  H  H128  1  0.47249000  0.60395000  0.21486000  1.0
  H  H129  1  0.52047000  0.71482000  0.10561000  1.0
  H  H130  1  0.46963000  0.89411000  0.28684000  1.0
  H  H131  1  0.52267000  0.78483000  0.39531000  1.0
  H  H132  1  0.52019000  0.77934000  0.17089000  1.0
  H  H133  1  0.46769000  0.82894000  0.22210000  1.0
  H  H134  1  0.47043000  0.66892000  0.27984000  1.0
  H  H135  1  0.52251000  0.72004000  0.33018000  1.0
  H  H136  1  0.03005000  0.78569000  0.10455000  1.0
  H  H137  1  0.97936000  0.89442000  0.21471000  1.0
  H  H138  1  0.03011000  0.71373000  0.39472000  1.0
  H  H139  1  0.97931000  0.60486000  0.28476000  1.0
  H  H140  1  0.97971000  0.82920000  0.27933000  1.0
  H  H141  1  0.03224000  0.77852000  0.32959000  1.0
  H  H142  1  0.03216000  0.72079000  0.16961000  1.0
  H  H143  1  0.97971000  0.67000000  0.22002000  1.0
  H  H144  1  0.47934000  0.60602000  0.78561000  1.0
  H  H145  1  0.53070000  0.71445000  0.89575000  1.0
  H  H146  1  0.48012000  0.89562000  0.71571000  1.0
  H  H147  1  0.52994000  0.78651000  0.60554000  1.0
  H  H148  1  0.53288000  0.77942000  0.83074000  1.0
  H  H149  1  0.48062000  0.83050000  0.78048000  1.0
  H  H150  1  0.47974000  0.67129000  0.72107000  1.0
  H  H151  1  0.53222000  0.72177000  0.67068000  1.0
  H  H152  1  0.47859000  0.28439000  0.10432000  1.0
  H  H153  1  0.52805000  0.39448000  0.21368000  1.0
  H  H154  1  0.47749000  0.21420000  0.39403000  1.0
  H  H155  1  0.52913000  0.10431000  0.28550000  1.0
  H  H156  1  0.52999000  0.32932000  0.27841000  1.0
  H  H157  1  0.47754000  0.27878000  0.32877000  1.0
  H  H158  1  0.47875000  0.21960000  0.16942000  1.0
  H  H159  1  0.53094000  0.16933000  0.22054000  1.0
  H  H160  1  0.02872000  0.10528000  0.78613000  1.0
  H  H161  1  0.97860000  0.21530000  0.89526000  1.0
  H  H162  1  0.02917000  0.39546000  0.71429000  1.0
  H  H163  1  0.97800000  0.28550000  0.60561000  1.0
  H  H164  1  0.97882000  0.28006000  0.83013000  1.0
  H  H165  1  0.03111000  0.33040000  0.77920000  1.0
  H  H166  1  0.03070000  0.17042000  0.72136000  1.0
  H  H167  1  0.97820000  0.22086000  0.67083000  1.0
  H  H168  1  0.21495000  0.02179000  0.10540000  1.0
  H  H169  1  0.10508000  0.96971000  0.21375000  1.0
  H  H170  1  0.28484000  0.01958000  0.39501000  1.0
  H  H171  1  0.39524000  0.97041000  0.28584000  1.0
  H  H172  1  0.17015000  0.96731000  0.27859000  1.0
  H  H173  1  0.22021000  0.01944000  0.32981000  1.0
  H  H174  1  0.27963000  0.02115000  0.17060000  1.0
  H  H175  1  0.33019000  0.96849000  0.22094000  1.0
  H  H176  1  0.39488000  0.52233000  0.78493000  1.0
  H  H177  1  0.28624000  0.47121000  0.89495000  1.0
  H  H178  1  0.10511000  0.52096000  0.71503000  1.0
  H  H179  1  0.21415000  0.47106000  0.60483000  1.0
  H  H180  1  0.22139000  0.46896000  0.82991000  1.0
  H  H181  1  0.17035000  0.52100000  0.77964000  1.0
  H  H182  1  0.32966000  0.52186000  0.72025000  1.0
  H  H183  1  0.27907000  0.46932000  0.66985000  1.0
  H  H184  1  0.89510000  0.01997000  0.78491000  1.0
  H  H185  1  0.78560000  0.97161000  0.89536000  1.0
  H  H186  1  0.60548000  0.02294000  0.71472000  1.0
  H  H187  1  0.71378000  0.97027000  0.60510000  1.0
  H  H188  1  0.72076000  0.96981000  0.83026000  1.0
  H  H189  1  0.67064000  0.02237000  0.77945000  1.0
  H  H190  1  0.82995000  0.01995000  0.72024000  1.0
  H  H191  1  0.77858000  0.96792000  0.67023000  1.0
  H  H192  1  0.71402000  0.47011000  0.10498000  1.0
  H  H193  1  0.60477000  0.51900000  0.21544000  1.0
  H  H194  1  0.78626000  0.46939000  0.39512000  1.0
  H  H195  1  0.89442000  0.52168000  0.28517000  1.0
  H  H196  1  0.66999000  0.51885000  0.28006000  1.0
  H  H197  1  0.72137000  0.46683000  0.33010000  1.0
  H  H198  1  0.77890000  0.46818000  0.17001000  1.0
  H  H199  1  0.82916000  0.52089000  0.22054000  1.0
  H  H200  1  0.21462000  0.97848000  0.89455000  1.0
  H  H201  1  0.10508000  0.03127000  0.78622000  1.0
  H  H202  1  0.28468000  0.98032000  0.60499000  1.0
  H  H203  1  0.39530000  0.02870000  0.71431000  1.0
  H  H204  1  0.17020000  0.03331000  0.72137000  1.0
  H  H205  1  0.22000000  0.98086000  0.67014000  1.0
  H  H206  1  0.27931000  0.97875000  0.82937000  1.0
  H  H207  1  0.33022000  0.03103000  0.77912000  1.0
  H  H208  1  0.39498000  0.48015000  0.21506000  1.0
  H  H209  1  0.28546000  0.52837000  0.10457000  1.0
  H  H210  1  0.10545000  0.47726000  0.28537000  1.0
  H  H211  1  0.21379000  0.53009000  0.39487000  1.0
  H  H212  1  0.22064000  0.53026000  0.16970000  1.0
  H  H213  1  0.17056000  0.47777000  0.22060000  1.0
  H  H214  1  0.32987000  0.48025000  0.27974000  1.0
  H  H215  1  0.27855000  0.53238000  0.32969000  1.0
  H  H216  1  0.89476000  0.97791000  0.21498000  1.0
  H  H217  1  0.78620000  0.02936000  0.10503000  1.0
  H  H218  1  0.60508000  0.97919000  0.28492000  1.0
  H  H219  1  0.71414000  0.02892000  0.39519000  1.0
  H  H220  1  0.72134000  0.03157000  0.17009000  1.0
  H  H221  1  0.67028000  0.97937000  0.22028000  1.0
  H  H222  1  0.82954000  0.97836000  0.27965000  1.0
  H  H223  1  0.77901000  0.03087000  0.33014000  1.0
  H  H224  1  0.71527000  0.47871000  0.89493000  1.0
  H  H225  1  0.60516000  0.52992000  0.78640000  1.0
  H  H226  1  0.78486000  0.47992000  0.60517000  1.0
  H  H227  1  0.89527000  0.52966000  0.71406000  1.0
  H  H228  1  0.67016000  0.53227000  0.72153000  1.0
  H  H229  1  0.72030000  0.48014000  0.67045000  1.0
  H  H230  1  0.77989000  0.47927000  0.82967000  1.0
  H  H231  1  0.83030000  0.53169000  0.77902000  1.0
  C  C232  1  0.11454000  0.11550000  0.99748000  1.0
  C  C233  1  0.88457000  0.11457000  0.00289000  1.0
  C  C234  1  0.00221000  0.11537000  0.88534000  1.0
  C  C235  1  0.99702000  0.11466000  0.11535000  1.0
  C  C236  1  0.88551000  0.88459000  0.99733000  1.0
  C  C237  1  0.11563000  0.88561000  0.00255000  1.0
  C  C238  1  0.88508000  0.99725000  0.88503000  1.0
  C  C239  1  0.88519000  0.00214000  0.11518000  1.0
  C  C240  1  0.11519000  0.99739000  0.11488000  1.0
  C  C241  1  0.11503000  0.00333000  0.88505000  1.0
  C  C242  1  0.99786000  0.88521000  0.88487000  1.0
  C  C243  1  0.00313000  0.88480000  0.11485000  1.0
  C  C244  1  0.61583000  0.61416000  0.99779000  1.0
  C  C245  1  0.38566000  0.61562000  0.00277000  1.0
  C  C246  1  0.50341000  0.61543000  0.88540000  1.0
  C  C247  1  0.49787000  0.61464000  0.11534000  1.0
  C  C248  1  0.38419000  0.38580000  0.99673000  1.0
  C  C249  1  0.61415000  0.38413000  0.00254000  1.0
  C  C250  1  0.38527000  0.49823000  0.88478000  1.0
  C  C251  1  0.38496000  0.50282000  0.11494000  1.0
  C  C252  1  0.61472000  0.49630000  0.11531000  1.0
  C  C253  1  0.61535000  0.50260000  0.88537000  1.0
  C  C254  1  0.49685000  0.38565000  0.88436000  1.0
  C  C255  1  0.50191000  0.38442000  0.11437000  1.0
  C  C256  1  0.11533000  0.61469000  0.49723000  1.0
  C  C257  1  0.88542000  0.61538000  0.50243000  1.0
  C  C258  1  0.00311000  0.61466000  0.38465000  1.0
  C  C259  1  0.99753000  0.61537000  0.61461000  1.0
  C  C260  1  0.88469000  0.38526000  0.49745000  1.0
  C  C261  1  0.11456000  0.38462000  0.50283000  1.0
  C  C262  1  0.88504000  0.49730000  0.38493000  1.0
  C  C263  1  0.88489000  0.50311000  0.61487000  1.0
  C  C264  1  0.11489000  0.49745000  0.61508000  1.0
  C  C265  1  0.11497000  0.50217000  0.38496000  1.0
  C  C266  1  0.99699000  0.38486000  0.38515000  1.0
  C  C267  1  0.00229000  0.38526000  0.61517000  1.0
  C  C268  1  0.61451000  0.11545000  0.49694000  1.0
  C  C269  1  0.38463000  0.11466000  0.50236000  1.0
  C  C270  1  0.50215000  0.11454000  0.38462000  1.0
  C  C271  1  0.49693000  0.11543000  0.61463000  1.0
  C  C272  1  0.38553000  0.88451000  0.49773000  1.0
  C  C273  1  0.61540000  0.88539000  0.50299000  1.0
  C  C274  1  0.38490000  0.99665000  0.38513000  1.0
  C  C275  1  0.38487000  0.00279000  0.61493000  1.0
  C  C276  1  0.61494000  0.99812000  0.61507000  1.0
  C  C277  1  0.61489000  0.00250000  0.38493000  1.0
  C  C278  1  0.49761000  0.88443000  0.38564000  1.0
  C  C279  1  0.50321000  0.88565000  0.61564000  1.0
  C  C280  1  0.22928000  0.23095000  0.99435000  1.0
  C  C281  1  0.17933000  0.24201000  0.98024000  1.0
  C  C282  1  0.14210000  0.20464000  0.98136000  1.0
  C  C283  1  0.15397000  0.15514000  0.99612000  1.0
  C  C284  1  0.20394000  0.14391000  0.00981000  1.0
  C  C285  1  0.24103000  0.18138000  0.00919000  1.0
  C  C286  1  0.26884000  0.27092000  0.99402000  1.0
  C  C287  1  0.31881000  0.25952000  0.98026000  1.0
  C  C288  1  0.35616000  0.29675000  0.98108000  1.0
  C  C289  1  0.34443000  0.34648000  0.99520000  1.0
  C  C290  1  0.29440000  0.35811000  0.00831000  1.0
  C  C291  1  0.25715000  0.32077000  0.00797000  1.0
  C  C292  1  0.23062000  0.72962000  0.49473000  1.0
  C  C293  1  0.18092000  0.74131000  0.50918000  1.0
  C  C294  1  0.14351000  0.70416000  0.50954000  1.0
  C  C295  1  0.15490000  0.65420000  0.49597000  1.0
  C  C296  1  0.20452000  0.64240000  0.48152000  1.0
  C  C297  1  0.24184000  0.67968000  0.48067000  1.0
  C  C298  1  0.27057000  0.76923000  0.49475000  1.0
  C  C299  1  0.32032000  0.75755000  0.50904000  1.0
  C  C300  1  0.35766000  0.79480000  0.50957000  1.0
  C  C301  1  0.34612000  0.84481000  0.49632000  1.0
  C  C302  1  0.29646000  0.85655000  0.48198000  1.0
  C  C303  1  0.25923000  0.81920000  0.48096000  1.0
  C  C304  1  0.77073000  0.76908000  0.99473000  1.0
  C  C305  1  0.75886000  0.81886000  0.00874000  1.0
  C  C306  1  0.79595000  0.85634000  0.00912000  1.0
  C  C307  1  0.84604000  0.84494000  0.99603000  1.0
  C  C308  1  0.85801000  0.79523000  0.98203000  1.0
  C  C309  1  0.82079000  0.75784000  0.98115000  1.0
  C  C310  1  0.73115000  0.72908000  0.99471000  1.0
  C  C311  1  0.74276000  0.67941000  0.00935000  1.0
  C  C312  1  0.70551000  0.64206000  0.00988000  1.0
  C  C313  1  0.65557000  0.65351000  0.99630000  1.0
  C  C314  1  0.64391000  0.70308000  0.98157000  1.0
  C  C315  1  0.68126000  0.74031000  0.98053000  1.0
  C  C316  1  0.76942000  0.27032000  0.49430000  1.0
  C  C317  1  0.75820000  0.32033000  0.48052000  1.0
  C  C318  1  0.79551000  0.35761000  0.48162000  1.0
  C  C319  1  0.84512000  0.34574000  0.49604000  1.0
  C  C320  1  0.85651000  0.29571000  0.50935000  1.0
  C  C321  1  0.81910000  0.25855000  0.50874000  1.0
  C  C322  1  0.72946000  0.23072000  0.49410000  1.0
  C  C323  1  0.74076000  0.18080000  0.48007000  1.0
  C  C324  1  0.70353000  0.14345000  0.48097000  1.0
  C  C325  1  0.65389000  0.15515000  0.49544000  1.0
  C  C326  1  0.64237000  0.20512000  0.50888000  1.0
  C  C327  1  0.67972000  0.24235000  0.50847000  1.0
  C  C328  1  0.76907000  0.22929000  0.00562000  1.0
  C  C329  1  0.75791000  0.17928000  0.01945000  1.0
  C  C330  1  0.79530000  0.14207000  0.01853000  1.0
  C  C331  1  0.84493000  0.15401000  0.00424000  1.0
  C  C332  1  0.85626000  0.20405000  0.99088000  1.0
  C  C333  1  0.81878000  0.24112000  0.99131000  1.0
  C  C334  1  0.72907000  0.26883000  0.00568000  1.0
  C  C335  1  0.74031000  0.31875000  0.01975000  1.0
  C  C336  1  0.70308000  0.35608000  0.01873000  1.0
  C  C337  1  0.65349000  0.34439000  0.00408000  1.0
  C  C338  1  0.64202000  0.29442000  0.99061000  1.0
  C  C339  1  0.67938000  0.25718000  0.99116000  1.0
  C  C340  1  0.77054000  0.73074000  0.50558000  1.0
  C  C341  1  0.75920000  0.68078000  0.51944000  1.0
  C  C342  1  0.79639000  0.64340000  0.51837000  1.0
  C  C343  1  0.84602000  0.65508000  0.50390000  1.0
  C  C344  1  0.85757000  0.70508000  0.49059000  1.0
  C  C345  1  0.82026000  0.74236000  0.49117000  1.0
  C  C346  1  0.73062000  0.77038000  0.50561000  1.0
  C  C347  1  0.74189000  0.82034000  0.51955000  1.0
  C  C348  1  0.70460000  0.85766000  0.51866000  1.0
  C  C349  1  0.65496000  0.84586000  0.50430000  1.0
  C  C350  1  0.64351000  0.79588000  0.49085000  1.0
  C  C351  1  0.68090000  0.75870000  0.49125000  1.0
  C  C352  1  0.22946000  0.26929000  0.50547000  1.0
  C  C353  1  0.24079000  0.31917000  0.51962000  1.0
  C  C354  1  0.20358000  0.35655000  0.51876000  1.0
  C  C355  1  0.15395000  0.34491000  0.50423000  1.0
  C  C356  1  0.14241000  0.29498000  0.49066000  1.0
  C  C357  1  0.17974000  0.25772000  0.49103000  1.0
  C  C358  1  0.26938000  0.22965000  0.50528000  1.0
  C  C359  1  0.25810000  0.17963000  0.51896000  1.0
  C  C360  1  0.29539000  0.14232000  0.51792000  1.0
  C  C361  1  0.34505000  0.15418000  0.50365000  1.0
  C  C362  1  0.35649000  0.20422000  0.49040000  1.0
  C  C363  1  0.31910000  0.24140000  0.49096000  1.0
  C  C364  1  0.23110000  0.77088000  0.00550000  1.0
  C  C365  1  0.24254000  0.82049000  0.99058000  1.0
  C  C366  1  0.20523000  0.85777000  0.99006000  1.0
  C  C367  1  0.15538000  0.84629000  0.00397000  1.0
  C  C368  1  0.14386000  0.79677000  0.01895000  1.0
  C  C369  1  0.18128000  0.75962000  0.01996000  1.0
  C  C370  1  0.27074000  0.73097000  0.00545000  1.0
  C  C371  1  0.25891000  0.68115000  0.99160000  1.0
  C  C372  1  0.29607000  0.64375000  0.99116000  1.0
  C  C373  1  0.34618000  0.65526000  0.00406000  1.0
  C  C374  1  0.35813000  0.70502000  0.01788000  1.0
  C  C375  1  0.32084000  0.74234000  0.01880000  1.0
  C  C376  1  0.99420000  0.22967000  0.23057000  1.0
  C  C377  1  0.00845000  0.17992000  0.24225000  1.0
  C  C378  1  0.00889000  0.14256000  0.20502000  1.0
  C  C379  1  0.99558000  0.15409000  0.15502000  1.0
  C  C380  1  0.98126000  0.20376000  0.14327000  1.0
  C  C381  1  0.98034000  0.24100000  0.18061000  1.0
  C  C382  1  0.99427000  0.26961000  0.27018000  1.0
  C  C383  1  0.00883000  0.31928000  0.25849000  1.0
  C  C384  1  0.00928000  0.35669000  0.29565000  1.0
  C  C385  1  0.99567000  0.34531000  0.34561000  1.0
  C  C386  1  0.98116000  0.29571000  0.35740000  1.0
  C  C387  1  0.98022000  0.25841000  0.32011000  1.0
  C  C388  1  0.49386000  0.27076000  0.76905000  1.0
  C  C389  1  0.47961000  0.25951000  0.81892000  1.0
  C  C390  1  0.48056000  0.29673000  0.85627000  1.0
  C  C391  1  0.49531000  0.34629000  0.84463000  1.0
  C  C392  1  0.50896000  0.35776000  0.79471000  1.0
  C  C393  1  0.50849000  0.32042000  0.75747000  1.0
  C  C394  1  0.49399000  0.23080000  0.72947000  1.0
  C  C395  1  0.48038000  0.24204000  0.67942000  1.0
  C  C396  1  0.48138000  0.20470000  0.64217000  1.0
  C  C397  1  0.49555000  0.15504000  0.65411000  1.0
  C  C398  1  0.50872000  0.14363000  0.70417000  1.0
  C  C399  1  0.50820000  0.18106000  0.74130000  1.0
  C  C400  1  0.99508000  0.77021000  0.76957000  1.0
  C  C401  1  0.00889000  0.75836000  0.81941000  1.0
  C  C402  1  0.00937000  0.79553000  0.85682000  1.0
  C  C403  1  0.99655000  0.84567000  0.84529000  1.0
  C  C404  1  0.98273000  0.85760000  0.79552000  1.0
  C  C405  1  0.98178000  0.82032000  0.75820000  1.0
  C  C406  1  0.99499000  0.73060000  0.72962000  1.0
  C  C407  1  0.00989000  0.74210000  0.68001000  1.0
  C  C408  1  0.01026000  0.70487000  0.64265000  1.0
  C  C409  1  0.99624000  0.65504000  0.65403000  1.0
  C  C410  1  0.98131000  0.64345000  0.70355000  1.0
  C  C411  1  0.98045000  0.68079000  0.74080000  1.0
  C  C412  1  0.49523000  0.72951000  0.23078000  1.0
  C  C413  1  0.48205000  0.67937000  0.24213000  1.0
  C  C414  1  0.48297000  0.64212000  0.20478000  1.0
  C  C415  1  0.49664000  0.65413000  0.15498000  1.0
  C  C416  1  0.50937000  0.70429000  0.14348000  1.0
  C  C417  1  0.50893000  0.74142000  0.18092000  1.0
  C  C418  1  0.49509000  0.76911000  0.27073000  1.0
  C  C419  1  0.48040000  0.81887000  0.25956000  1.0
  C  C420  1  0.48125000  0.85624000  0.29677000  1.0
  C  C421  1  0.49631000  0.84471000  0.34627000  1.0
  C  C422  1  0.51046000  0.79491000  0.35767000  1.0
  C  C423  1  0.51010000  0.75766000  0.32032000  1.0
  C  C424  1  0.00600000  0.76960000  0.22984000  1.0
  C  C425  1  0.01994000  0.75836000  0.17988000  1.0
  C  C426  1  0.01899000  0.79566000  0.14258000  1.0
  C  C427  1  0.00454000  0.84527000  0.15439000  1.0
  C  C428  1  0.99109000  0.85669000  0.20439000  1.0
  C  C429  1  0.99157000  0.81929000  0.24155000  1.0
  C  C430  1  0.00602000  0.72965000  0.26943000  1.0
  C  C431  1  0.02000000  0.74094000  0.31937000  1.0
  C  C432  1  0.01903000  0.70371000  0.35671000  1.0
  C  C433  1  0.00455000  0.65408000  0.34498000  1.0
  C  C434  1  0.99108000  0.64260000  0.29501000  1.0
  C  C435  1  0.99157000  0.67995000  0.25778000  1.0
  C  C436  1  0.50639000  0.73076000  0.77053000  1.0
  C  C437  1  0.49175000  0.68113000  0.75882000  1.0
  C  C438  1  0.49124000  0.64370000  0.79594000  1.0
  C  C439  1  0.50486000  0.65502000  0.84591000  1.0
  C  C440  1  0.51952000  0.70457000  0.85773000  1.0
  C  C441  1  0.52051000  0.74190000  0.82047000  1.0
  C  C442  1  0.50645000  0.77073000  0.73095000  1.0
  C  C443  1  0.49225000  0.82050000  0.74265000  1.0
  C  C444  1  0.49168000  0.85783000  0.70541000  1.0
  C  C445  1  0.50481000  0.84627000  0.65536000  1.0
  C  C446  1  0.51910000  0.79660000  0.64360000  1.0
  C  C447  1  0.52015000  0.75938000  0.68095000  1.0
  C  C448  1  0.50438000  0.26908000  0.22932000  1.0
  C  C449  1  0.49036000  0.25741000  0.17949000  1.0
  C  C450  1  0.48999000  0.29468000  0.14216000  1.0
  C  C451  1  0.50315000  0.34470000  0.15378000  1.0
  C  C452  1  0.51721000  0.35643000  0.20353000  1.0
  C  C453  1  0.51806000  0.31907000  0.24074000  1.0
  C  C454  1  0.50432000  0.22944000  0.26925000  1.0
  C  C455  1  0.48966000  0.24107000  0.31890000  1.0
  C  C456  1  0.48937000  0.20393000  0.35633000  1.0
  C  C457  1  0.50322000  0.15403000  0.34500000  1.0
  C  C458  1  0.51779000  0.14227000  0.29541000  1.0
  C  C459  1  0.51857000  0.17955000  0.25807000  1.0
  C  C460  1  0.00478000  0.23062000  0.77034000  1.0
  C  C461  1  0.01862000  0.18066000  0.75898000  1.0
  C  C462  1  0.01775000  0.14331000  0.79622000  1.0
  C  C463  1  0.00349000  0.15504000  0.84591000  1.0
  C  C464  1  0.99016000  0.20503000  0.85746000  1.0
  C  C465  1  0.99056000  0.24227000  0.82012000  1.0
  C  C466  1  0.00473000  0.27025000  0.73041000  1.0
  C  C467  1  0.01882000  0.32017000  0.74164000  1.0
  C  C468  1  0.01797000  0.35747000  0.70434000  1.0
  C  C469  1  0.00347000  0.34571000  0.65473000  1.0
  C  C470  1  0.98981000  0.29578000  0.64333000  1.0
  C  C471  1  0.99018000  0.25860000  0.68073000  1.0
  C  C472  1  0.23026000  0.99414000  0.23000000  1.0
  C  C473  1  0.24190000  0.00906000  0.18042000  1.0
  C  C474  1  0.20471000  0.00970000  0.14304000  1.0
  C  C475  1  0.15478000  0.99593000  0.15436000  1.0
  C  C476  1  0.14306000  0.98103000  0.20386000  1.0
  C  C477  1  0.18037000  0.97990000  0.24113000  1.0
  C  C478  1  0.26984000  0.99395000  0.26996000  1.0
  C  C479  1  0.25805000  0.00787000  0.31979000  1.0
  C  C480  1  0.29522000  0.00823000  0.35718000  1.0
  C  C481  1  0.34529000  0.99519000  0.34564000  1.0
  C  C482  1  0.35715000  0.98117000  0.29591000  1.0
  C  C483  1  0.31986000  0.98033000  0.25861000  1.0
  C  C484  1  0.27011000  0.49534000  0.76970000  1.0
  C  C485  1  0.31977000  0.50995000  0.75802000  1.0
  C  C486  1  0.35717000  0.51049000  0.79521000  1.0
  C  C487  1  0.34578000  0.49694000  0.84518000  1.0
  C  C488  1  0.29619000  0.48236000  0.85695000  1.0
  C  C489  1  0.25891000  0.48133000  0.81965000  1.0
  C  C490  1  0.23013000  0.49516000  0.73011000  1.0
  C  C491  1  0.18034000  0.50924000  0.74185000  1.0
  C  C492  1  0.14292000  0.50949000  0.70469000  1.0
  C  C493  1  0.15440000  0.49617000  0.65468000  1.0
  C  C494  1  0.20411000  0.48203000  0.64287000  1.0
  C  C495  1  0.24143000  0.48129000  0.68015000  1.0
  C  C496  1  0.76995000  0.99486000  0.76986000  1.0
  C  C497  1  0.81984000  0.00854000  0.75810000  1.0
  C  C498  1  0.85721000  0.00883000  0.79531000  1.0
  C  C499  1  0.84558000  0.99595000  0.84541000  1.0
  C  C500  1  0.79577000  0.98222000  0.85726000  1.0
  C  C501  1  0.75849000  0.98146000  0.81992000  1.0
  C  C502  1  0.73002000  0.99507000  0.73023000  1.0
  C  C503  1  0.68046000  0.01014000  0.74177000  1.0
  C  C504  1  0.64311000  0.01074000  0.70455000  1.0
  C  C505  1  0.65443000  0.99679000  0.65467000  1.0
  C  C506  1  0.70391000  0.98174000  0.64303000  1.0
  C  C507  1  0.74115000  0.98064000  0.68038000  1.0
  C  C508  1  0.72986000  0.49351000  0.23040000  1.0
  C  C509  1  0.74122000  0.47995000  0.18036000  1.0
  C  C510  1  0.70392000  0.48080000  0.14308000  1.0
  C  C511  1  0.65417000  0.49475000  0.15495000  1.0
  C  C512  1  0.64261000  0.50770000  0.20504000  1.0
  C  C513  1  0.68002000  0.50734000  0.24221000  1.0
  C  C514  1  0.76986000  0.49377000  0.26995000  1.0
  C  C515  1  0.75880000  0.47950000  0.31985000  1.0
  C  C516  1  0.79609000  0.48072000  0.35713000  1.0
  C  C517  1  0.84554000  0.49575000  0.34537000  1.0
  C  C518  1  0.85681000  0.50951000  0.29543000  1.0
  C  C519  1  0.81940000  0.50878000  0.25827000  1.0
  C  C520  1  0.23013000  0.00609000  0.76997000  1.0
  C  C521  1  0.24166000  0.99110000  0.81955000  1.0
  C  C522  1  0.20447000  0.99068000  0.85692000  1.0
  C  C523  1  0.15463000  0.00473000  0.84558000  1.0
  C  C524  1  0.14299000  0.01974000  0.79610000  1.0
  C  C525  1  0.18032000  0.02065000  0.75883000  1.0
  C  C526  1  0.26973000  0.00600000  0.73003000  1.0
  C  C527  1  0.25790000  0.99216000  0.68020000  1.0
  C  C528  1  0.29511000  0.99156000  0.64284000  1.0
  C  C529  1  0.34526000  0.00429000  0.65442000  1.0
  C  C530  1  0.35716000  0.01818000  0.70418000  1.0
  C  C531  1  0.31984000  0.01926000  0.74144000  1.0
  C  C532  1  0.26985000  0.50529000  0.23010000  1.0
  C  C533  1  0.31974000  0.49162000  0.24187000  1.0
  C  C534  1  0.35709000  0.49128000  0.20465000  1.0
  C  C535  1  0.34545000  0.50411000  0.15455000  1.0
  C  C536  1  0.29564000  0.51781000  0.14269000  1.0
  C  C537  1  0.25838000  0.51863000  0.18003000  1.0
  C  C538  1  0.22995000  0.50515000  0.26976000  1.0
  C  C539  1  0.18040000  0.49005000  0.25826000  1.0
  C  C540  1  0.14307000  0.48949000  0.29551000  1.0
  C  C541  1  0.15443000  0.50350000  0.34535000  1.0
  C  C542  1  0.20390000  0.51858000  0.35695000  1.0
  C  C543  1  0.24111000  0.51964000  0.31958000  1.0
  C  C544  1  0.77003000  0.00503000  0.23025000  1.0
  C  C545  1  0.81967000  0.99035000  0.24190000  1.0
  C  C546  1  0.85707000  0.98982000  0.20471000  1.0
  C  C547  1  0.84569000  0.00347000  0.15477000  1.0
  C  C548  1  0.79613000  0.01814000  0.14302000  1.0
  C  C549  1  0.75885000  0.01915000  0.18033000  1.0
  C  C550  1  0.73006000  0.00514000  0.26984000  1.0
  C  C551  1  0.68028000  0.99104000  0.25809000  1.0
  C  C552  1  0.64288000  0.99066000  0.29528000  1.0
  C  C553  1  0.65438000  0.00386000  0.34532000  1.0
  C  C554  1  0.70408000  0.01803000  0.35713000  1.0
  C  C555  1  0.74138000  0.01889000  0.31983000  1.0
  C  C556  1  0.73039000  0.50583000  0.77018000  1.0
  C  C557  1  0.74212000  0.49119000  0.81982000  1.0
  C  C558  1  0.70495000  0.49059000  0.85724000  1.0
  C  C559  1  0.65496000  0.50411000  0.84589000  1.0
  C  C560  1  0.64317000  0.51879000  0.79633000  1.0
  C  C561  1  0.68045000  0.51987000  0.75903000  1.0
  C  C562  1  0.76993000  0.50594000  0.73016000  1.0
  C  C563  1  0.75812000  0.49182000  0.68039000  1.0
  C  C564  1  0.79525000  0.49141000  0.64295000  1.0
  C  C565  1  0.84531000  0.50459000  0.65439000  1.0
  C  C566  1  0.85719000  0.51879000  0.70406000  1.0
  C  C567  1  0.81994000  0.51969000  0.74140000  1.0
  O  O568  1  0.12951000  0.06887000  0.99859000  1.0
  O  O569  1  0.86997000  0.06780000  0.00229000  1.0
  O  O570  1  0.00084000  0.13003000  0.93206000  1.0
  O  O571  1  0.99736000  0.12957000  0.06867000  1.0
  O  O572  1  0.99852000  0.06794000  0.13001000  1.0
  O  O573  1  0.00192000  0.06869000  0.87045000  1.0
  O  O574  1  0.93120000  0.12953000  0.00172000  1.0
  O  O575  1  0.06777000  0.13011000  0.99810000  1.0
  O  O576  1  0.95416000  0.04547000  0.04594000  1.0
  O  O577  1  0.04559000  0.04610000  0.95437000  1.0
  O  O578  1  0.95425000  0.04548000  0.95460000  1.0
  O  O579  1  0.04542000  0.04569000  0.04567000  1.0
  O  O580  1  0.87055000  0.93122000  0.99875000  1.0
  O  O581  1  0.13019000  0.93237000  0.00137000  1.0
  O  O582  1  0.93177000  0.99879000  0.87026000  1.0
  O  O583  1  0.93189000  0.00099000  0.12991000  1.0
  O  O584  1  0.06849000  0.99763000  0.12971000  1.0
  O  O585  1  0.06833000  0.00262000  0.87024000  1.0
  O  O586  1  0.99930000  0.87035000  0.93153000  1.0
  O  O587  1  0.00267000  0.87009000  0.06812000  1.0
  O  O588  1  0.99811000  0.93197000  0.87017000  1.0
  O  O589  1  0.00178000  0.93146000  0.12970000  1.0
  O  O590  1  0.87030000  0.99749000  0.93176000  1.0
  O  O591  1  0.12981000  0.00218000  0.93173000  1.0
  O  O592  1  0.12992000  0.99892000  0.06820000  1.0
  O  O593  1  0.87036000  0.00161000  0.06849000  1.0
  O  O594  1  0.93229000  0.86998000  0.99768000  1.0
  O  O595  1  0.06900000  0.87059000  0.00199000  1.0
  O  O596  1  0.04607000  0.95436000  0.04568000  1.0
  O  O597  1  0.95453000  0.95422000  0.95426000  1.0
  O  O598  1  0.04579000  0.95476000  0.95435000  1.0
  O  O599  1  0.95472000  0.95415000  0.04553000  1.0
  O  O600  1  0.63032000  0.56737000  0.99910000  1.0
  O  O601  1  0.37065000  0.56902000  0.00132000  1.0
  O  O602  1  0.50294000  0.63007000  0.93216000  1.0
  O  O603  1  0.49947000  0.62957000  0.06871000  1.0
  O  O604  1  0.49791000  0.56787000  0.12995000  1.0
  O  O605  1  0.50200000  0.56881000  0.87048000  1.0
  O  O606  1  0.43247000  0.63017000  0.00249000  1.0
  O  O607  1  0.56922000  0.62924000  0.99828000  1.0
  O  O608  1  0.45451000  0.54586000  0.04583000  1.0
  O  O609  1  0.54619000  0.54561000  0.95457000  1.0
  O  O610  1  0.45482000  0.54604000  0.95456000  1.0
  O  O611  1  0.54580000  0.54509000  0.04582000  1.0
  O  O612  1  0.36971000  0.43257000  0.99828000  1.0
  O  O613  1  0.62923000  0.43074000  0.00231000  1.0
  O  O614  1  0.43199000  0.49939000  0.87007000  1.0
  O  O615  1  0.43162000  0.50112000  0.12974000  1.0
  O  O616  1  0.56801000  0.49784000  0.12998000  1.0
  O  O617  1  0.56867000  0.50258000  0.87050000  1.0
  O  O618  1  0.49707000  0.37063000  0.93099000  1.0
  O  O619  1  0.50045000  0.36984000  0.06762000  1.0
  O  O620  1  0.49853000  0.43239000  0.86981000  1.0
  O  O621  1  0.50175000  0.43108000  0.12935000  1.0
  O  O622  1  0.37042000  0.49867000  0.93147000  1.0
  O  O623  1  0.63003000  0.50079000  0.93208000  1.0
  O  O624  1  0.62960000  0.49674000  0.06864000  1.0
  O  O625  1  0.37022000  0.50277000  0.06820000  1.0
  O  O626  1  0.43080000  0.37073000  0.99709000  1.0
  O  O627  1  0.56737000  0.36965000  0.00092000  1.0
  O  O628  1  0.54532000  0.45370000  0.04562000  1.0
  O  O629  1  0.45404000  0.45478000  0.95392000  1.0
  O  O630  1  0.54538000  0.45433000  0.95431000  1.0
  O  O631  1  0.45410000  0.45452000  0.04528000  1.0
  O  O632  1  0.13001000  0.56794000  0.49788000  1.0
  O  O633  1  0.87047000  0.56871000  0.50199000  1.0
  O  O634  1  0.00271000  0.62956000  0.43131000  1.0
  O  O635  1  0.99888000  0.63001000  0.56788000  1.0
  O  O636  1  0.99789000  0.56870000  0.62952000  1.0
  O  O637  1  0.00169000  0.56795000  0.36998000  1.0
  O  O638  1  0.93215000  0.63001000  0.50108000  1.0
  O  O639  1  0.06868000  0.62958000  0.49831000  1.0
  O  O640  1  0.95436000  0.54600000  0.54554000  1.0
  O  O641  1  0.04592000  0.54551000  0.45411000  1.0
  O  O642  1  0.95455000  0.54560000  0.45430000  1.0
  O  O643  1  0.04569000  0.54554000  0.54544000  1.0
  O  O644  1  0.87001000  0.43200000  0.49788000  1.0
  O  O645  1  0.12952000  0.43127000  0.50220000  1.0
  O  O646  1  0.93174000  0.49835000  0.37017000  1.0
  O  O647  1  0.93159000  0.50258000  0.62968000  1.0
  O  O648  1  0.06819000  0.49891000  0.62982000  1.0
  O  O649  1  0.06827000  0.50109000  0.37020000  1.0
  O  O650  1  0.99734000  0.37015000  0.43188000  1.0
  O  O651  1  0.00106000  0.37040000  0.56850000  1.0
  O  O652  1  0.99838000  0.43151000  0.37030000  1.0
  O  O653  1  0.00189000  0.43200000  0.62987000  1.0
  O  O654  1  0.87022000  0.49810000  0.43162000  1.0
  O  O655  1  0.12979000  0.50158000  0.43167000  1.0
  O  O656  1  0.12971000  0.49775000  0.56837000  1.0
  O  O657  1  0.87012000  0.50174000  0.56818000  1.0
  O  O658  1  0.93134000  0.37039000  0.49878000  1.0
  O  O659  1  0.06782000  0.37000000  0.50164000  1.0
  O  O660  1  0.04554000  0.45426000  0.54582000  1.0
  O  O661  1  0.95409000  0.45428000  0.45427000  1.0
  O  O662  1  0.04543000  0.45422000  0.45453000  1.0
  O  O663  1  0.95427000  0.45469000  0.54563000  1.0
  O  O664  1  0.62949000  0.06880000  0.49769000  1.0
  O  O665  1  0.36999000  0.06790000  0.50209000  1.0
  O  O666  1  0.50094000  0.12948000  0.43125000  1.0
  O  O667  1  0.49726000  0.13003000  0.56786000  1.0
  O  O668  1  0.49839000  0.06881000  0.62957000  1.0
  O  O669  1  0.50181000  0.06777000  0.36999000  1.0
  O  O670  1  0.43126000  0.12956000  0.50097000  1.0
  O  O671  1  0.56776000  0.13005000  0.49809000  1.0
  O  O672  1  0.45402000  0.04580000  0.54562000  1.0
  O  O673  1  0.54551000  0.04570000  0.45411000  1.0
  O  O674  1  0.45424000  0.04518000  0.45430000  1.0
  O  O675  1  0.54540000  0.04593000  0.54539000  1.0
  O  O676  1  0.37056000  0.93116000  0.49798000  1.0
  O  O677  1  0.63006000  0.93214000  0.50226000  1.0
  O  O678  1  0.43160000  0.99718000  0.37032000  1.0
  O  O679  1  0.43159000  0.00267000  0.62972000  1.0
  O  O680  1  0.56825000  0.99927000  0.62984000  1.0
  O  O681  1  0.56819000  0.00096000  0.37019000  1.0
  O  O682  1  0.49898000  0.86986000  0.43239000  1.0
  O  O683  1  0.50287000  0.87066000  0.56900000  1.0
  O  O684  1  0.49794000  0.93106000  0.37063000  1.0
  O  O685  1  0.50163000  0.93239000  0.63021000  1.0
  O  O686  1  0.37014000  0.99803000  0.43182000  1.0
  O  O687  1  0.62971000  0.00226000  0.43164000  1.0
  O  O688  1  0.62976000  0.99862000  0.56837000  1.0
  O  O689  1  0.37012000  0.00109000  0.56826000  1.0
  O  O690  1  0.43227000  0.86991000  0.49921000  1.0
  O  O691  1  0.56876000  0.87048000  0.50196000  1.0
  O  O692  1  0.54592000  0.95467000  0.54601000  1.0
  O  O693  1  0.45441000  0.95386000  0.45454000  1.0
  O  O694  1  0.54572000  0.95442000  0.45466000  1.0
  O  O695  1  0.45460000  0.95447000  0.54582000  1.0
