# generated using pymatgen
data_ZnH12C18N2O3
_symmetry_space_group_name_H-M   'P 1'
_cell_length_a   26.45730000
_cell_length_b   26.45730000
_cell_length_c   5.28540000
_cell_angle_alpha   90.00000000
_cell_angle_beta   90.00000000
_cell_angle_gamma   90.00000000
_symmetry_Int_Tables_number   1
_chemical_formula_structural   ZnH12C18N2O3
_chemical_formula_sum   'Zn8 H96 C144 N16 O24'
_cell_volume   3699.72039808
_cell_formula_units_Z   8
loop_
 _symmetry_equiv_pos_site_id
 _symmetry_equiv_pos_as_xyz
  1  'x, y, z'
loop_
 _atom_site_type_symbol
 _atom_site_label
 _atom_site_symmetry_multiplicity
 _atom_site_fract_x
 _atom_site_fract_y
 _atom_site_fract_z
 _atom_site_occupancy
  Zn  Zn0  1  0.28515000  0.77380000  0.08418000  1.0
  Zn  Zn1  1  0.78515000  0.27380000  0.58418000  1.0
  Zn  Zn2  1  0.71485000  0.22620000  0.08418000  1.0
  Zn  Zn3  1  0.21485000  0.72620000  0.58418000  1.0
  Zn  Zn4  1  0.77380000  0.71485000  0.91582000  1.0
  Zn  Zn5  1  0.27380000  0.21485000  0.41582000  1.0
  Zn  Zn6  1  0.22620000  0.28515000  0.91582000  1.0
  Zn  Zn7  1  0.72620000  0.78515000  0.41582000  1.0
  H  H8  1  0.39280000  0.79490000  0.85910000  1.0
  H  H9  1  0.32080000  0.68730000  0.47570000  1.0
  H  H10  1  0.83030000  0.12220000  0.31350000  1.0
  H  H11  1  0.87890000  0.06430000  0.52170000  1.0
  H  H12  1  0.46300000  0.55190000  0.90390000  1.0
  H  H13  1  0.49910000  0.59930000  0.59560000  1.0
  H  H14  1  0.49370000  0.66770000  0.28010000  1.0
  H  H15  1  0.47030000  0.83080000  0.89050000  1.0
  H  H16  1  0.55050000  0.85870000  0.76480000  1.0
  H  H17  1  0.59600000  0.71430000  0.72490000  1.0
  H  H18  1  0.51510000  0.68820000  0.85160000  1.0
  H  H19  1  0.31447000  0.25407000  0.09050000  1.0
  H  H20  1  0.89280000  0.29490000  0.35910000  1.0
  H  H21  1  0.82080000  0.18730000  0.97570000  1.0
  H  H22  1  0.33030000  0.62220000  0.81350000  1.0
  H  H23  1  0.37890000  0.56430000  0.02170000  1.0
  H  H24  1  0.96300000  0.05190000  0.40390000  1.0
  H  H25  1  0.99910000  0.09930000  0.09560000  1.0
  H  H26  1  0.99370000  0.16770000  0.78010000  1.0
  H  H27  1  0.97030000  0.33080000  0.39050000  1.0
  H  H28  1  0.05050000  0.35870000  0.26480000  1.0
  H  H29  1  0.09600000  0.21430000  0.22490000  1.0
  H  H30  1  0.01510000  0.18820000  0.35160000  1.0
  H  H31  1  0.81447000  0.75407000  0.59050000  1.0
  H  H32  1  0.60720000  0.20510000  0.85910000  1.0
  H  H33  1  0.67920000  0.31270000  0.47570000  1.0
  H  H34  1  0.16970000  0.87780000  0.31350000  1.0
  H  H35  1  0.12110000  0.93570000  0.52170000  1.0
  H  H36  1  0.53700000  0.44810000  0.90390000  1.0
  H  H37  1  0.50090000  0.40070000  0.59560000  1.0
  H  H38  1  0.50630000  0.33230000  0.28010000  1.0
  H  H39  1  0.52970000  0.16920000  0.89050000  1.0
  H  H40  1  0.44950000  0.14130000  0.76480000  1.0
  H  H41  1  0.40400000  0.28570000  0.72490000  1.0
  H  H42  1  0.48490000  0.31180000  0.85160000  1.0
  H  H43  1  0.68553000  0.74593000  0.09050000  1.0
  H  H44  1  0.10720000  0.70510000  0.35910000  1.0
  H  H45  1  0.17920000  0.81270000  0.97570000  1.0
  H  H46  1  0.66970000  0.37780000  0.81350000  1.0
  H  H47  1  0.62110000  0.43570000  0.02170000  1.0
  H  H48  1  0.03700000  0.94810000  0.40390000  1.0
  H  H49  1  0.00090000  0.90070000  0.09560000  1.0
  H  H50  1  0.00630000  0.83230000  0.78010000  1.0
  H  H51  1  0.02970000  0.66920000  0.39050000  1.0
  H  H52  1  0.94950000  0.64130000  0.26480000  1.0
  H  H53  1  0.90400000  0.78570000  0.22490000  1.0
  H  H54  1  0.98490000  0.81180000  0.35160000  1.0
  H  H55  1  0.18553000  0.24593000  0.59050000  1.0
  H  H56  1  0.79490000  0.60720000  0.14090000  1.0
  H  H57  1  0.68730000  0.67920000  0.52430000  1.0
  H  H58  1  0.12220000  0.16970000  0.68650000  1.0
  H  H59  1  0.06430000  0.12110000  0.47830000  1.0
  H  H60  1  0.55190000  0.53700000  0.09610000  1.0
  H  H61  1  0.59930000  0.50090000  0.40440000  1.0
  H  H62  1  0.66770000  0.50630000  0.71990000  1.0
  H  H63  1  0.83080000  0.52970000  0.10950000  1.0
  H  H64  1  0.85870000  0.44950000  0.23520000  1.0
  H  H65  1  0.71430000  0.40400000  0.27510000  1.0
  H  H66  1  0.68820000  0.48490000  0.14840000  1.0
  H  H67  1  0.25407000  0.68553000  0.90950000  1.0
  H  H68  1  0.29490000  0.10720000  0.64090000  1.0
  H  H69  1  0.18730000  0.17920000  0.02430000  1.0
  H  H70  1  0.62220000  0.66970000  0.18650000  1.0
  H  H71  1  0.56430000  0.62110000  0.97830000  1.0
  H  H72  1  0.05190000  0.03700000  0.59610000  1.0
  H  H73  1  0.09930000  0.00090000  0.90440000  1.0
  H  H74  1  0.16770000  0.00630000  0.21990000  1.0
  H  H75  1  0.33080000  0.02970000  0.60950000  1.0
  H  H76  1  0.35870000  0.94950000  0.73520000  1.0
  H  H77  1  0.21430000  0.90400000  0.77510000  1.0
  H  H78  1  0.18820000  0.98490000  0.64840000  1.0
  H  H79  1  0.75407000  0.18553000  0.40950000  1.0
  H  H80  1  0.20510000  0.39280000  0.14090000  1.0
  H  H81  1  0.31270000  0.32080000  0.52430000  1.0
  H  H82  1  0.87780000  0.83030000  0.68650000  1.0
  H  H83  1  0.93570000  0.87890000  0.47830000  1.0
  H  H84  1  0.44810000  0.46300000  0.09610000  1.0
  H  H85  1  0.40070000  0.49910000  0.40440000  1.0
  H  H86  1  0.33230000  0.49370000  0.71990000  1.0
  H  H87  1  0.16920000  0.47030000  0.10950000  1.0
  H  H88  1  0.14130000  0.55050000  0.23520000  1.0
  H  H89  1  0.28570000  0.59600000  0.27510000  1.0
  H  H90  1  0.31180000  0.51510000  0.14840000  1.0
  H  H91  1  0.74593000  0.31447000  0.90950000  1.0
  H  H92  1  0.70510000  0.89280000  0.64090000  1.0
  H  H93  1  0.81270000  0.82080000  0.02430000  1.0
  H  H94  1  0.37780000  0.33030000  0.18650000  1.0
  H  H95  1  0.43570000  0.37890000  0.97830000  1.0
  H  H96  1  0.94810000  0.96300000  0.59610000  1.0
  H  H97  1  0.90070000  0.99910000  0.90440000  1.0
  H  H98  1  0.83230000  0.99370000  0.21990000  1.0
  H  H99  1  0.66920000  0.97030000  0.60950000  1.0
  H  H100  1  0.64130000  0.05050000  0.73520000  1.0
  H  H101  1  0.78570000  0.09600000  0.77510000  1.0
  H  H102  1  0.81180000  0.01510000  0.64840000  1.0
  H  H103  1  0.24593000  0.81447000  0.40950000  1.0
  C  C104  1  0.39596000  0.76843000  0.97400000  1.0
  C  C105  1  0.37810000  0.71248000  0.25890000  1.0
  C  C106  1  0.35494000  0.68328000  0.43880000  1.0
  C  C107  1  0.38437000  0.64691000  0.56620000  1.0
  C  C108  1  0.86388000  0.11769000  0.26670000  1.0
  C  C109  1  0.89274000  0.08330000  0.39070000  1.0
  C  C110  1  0.44380000  0.57629000  0.82120000  1.0
  C  C111  1  0.46530000  0.60429000  0.63680000  1.0
  C  C112  1  0.43659000  0.64149000  0.50490000  1.0
  C  C113  1  0.45972000  0.67170000  0.32080000  1.0
  C  C114  1  0.43037000  0.70749000  0.20240000  1.0
  C  C115  1  0.48796000  0.75835000  0.91680000  1.0
  C  C116  1  0.49630000  0.80770000  0.86800000  1.0
  C  C117  1  0.54330000  0.82450000  0.78400000  1.0
  C  C118  1  0.58069000  0.78551000  0.72630000  1.0
  C  C119  1  0.57110000  0.73820000  0.75840000  1.0
  C  C120  1  0.52310000  0.72240000  0.84410000  1.0
  C  C121  1  0.63170000  0.80090000  0.62500000  1.0
  C  C122  1  0.89596000  0.26843000  0.47400000  1.0
  C  C123  1  0.87810000  0.21248000  0.75890000  1.0
  C  C124  1  0.85494000  0.18328000  0.93880000  1.0
  C  C125  1  0.88437000  0.14691000  0.06620000  1.0
  C  C126  1  0.36388000  0.61769000  0.76670000  1.0
  C  C127  1  0.39274000  0.58330000  0.89070000  1.0
  C  C128  1  0.94380000  0.07629000  0.32120000  1.0
  C  C129  1  0.96530000  0.10429000  0.13680000  1.0
  C  C130  1  0.93659000  0.14149000  0.00490000  1.0
  C  C131  1  0.95972000  0.17170000  0.82080000  1.0
  C  C132  1  0.93037000  0.20749000  0.70240000  1.0
  C  C133  1  0.98796000  0.25835000  0.41680000  1.0
  C  C134  1  0.99630000  0.30770000  0.36800000  1.0
  C  C135  1  0.04330000  0.32450000  0.28400000  1.0
  C  C136  1  0.08069000  0.28551000  0.22630000  1.0
  C  C137  1  0.07110000  0.23820000  0.25840000  1.0
  C  C138  1  0.02310000  0.22240000  0.34410000  1.0
  C  C139  1  0.13170000  0.30090000  0.12500000  1.0
  C  C140  1  0.60404000  0.23157000  0.97400000  1.0
  C  C141  1  0.62190000  0.28752000  0.25890000  1.0
  C  C142  1  0.64506000  0.31672000  0.43880000  1.0
  C  C143  1  0.61563000  0.35309000  0.56620000  1.0
  C  C144  1  0.13612000  0.88231000  0.26670000  1.0
  C  C145  1  0.10726000  0.91670000  0.39070000  1.0
  C  C146  1  0.55620000  0.42371000  0.82120000  1.0
  C  C147  1  0.53470000  0.39571000  0.63680000  1.0
  C  C148  1  0.56341000  0.35851000  0.50490000  1.0
  C  C149  1  0.54028000  0.32830000  0.32080000  1.0
  C  C150  1  0.56963000  0.29251000  0.20240000  1.0
  C  C151  1  0.51204000  0.24165000  0.91680000  1.0
  C  C152  1  0.50370000  0.19230000  0.86800000  1.0
  C  C153  1  0.45670000  0.17550000  0.78400000  1.0
  C  C154  1  0.41931000  0.21449000  0.72630000  1.0
  C  C155  1  0.42890000  0.26180000  0.75840000  1.0
  C  C156  1  0.47690000  0.27760000  0.84410000  1.0
  C  C157  1  0.36830000  0.19910000  0.62500000  1.0
  C  C158  1  0.10404000  0.73157000  0.47400000  1.0
  C  C159  1  0.12190000  0.78752000  0.75890000  1.0
  C  C160  1  0.14506000  0.81672000  0.93880000  1.0
  C  C161  1  0.11563000  0.85309000  0.06620000  1.0
  C  C162  1  0.63612000  0.38231000  0.76670000  1.0
  C  C163  1  0.60726000  0.41670000  0.89070000  1.0
  C  C164  1  0.05620000  0.92371000  0.32120000  1.0
  C  C165  1  0.03470000  0.89571000  0.13680000  1.0
  C  C166  1  0.06341000  0.85851000  0.00490000  1.0
  C  C167  1  0.04028000  0.82830000  0.82080000  1.0
  C  C168  1  0.06963000  0.79251000  0.70240000  1.0
  C  C169  1  0.01204000  0.74165000  0.41680000  1.0
  C  C170  1  0.00370000  0.69230000  0.36800000  1.0
  C  C171  1  0.95670000  0.67550000  0.28400000  1.0
  C  C172  1  0.91931000  0.71449000  0.22630000  1.0
  C  C173  1  0.92890000  0.76180000  0.25840000  1.0
  C  C174  1  0.97690000  0.77760000  0.34410000  1.0
  C  C175  1  0.86830000  0.69910000  0.12500000  1.0
  C  C176  1  0.76843000  0.60404000  0.02600000  1.0
  C  C177  1  0.71248000  0.62190000  0.74110000  1.0
  C  C178  1  0.68328000  0.64506000  0.56120000  1.0
  C  C179  1  0.64691000  0.61563000  0.43380000  1.0
  C  C180  1  0.11769000  0.13612000  0.73330000  1.0
  C  C181  1  0.08330000  0.10726000  0.60930000  1.0
  C  C182  1  0.57629000  0.55620000  0.17880000  1.0
  C  C183  1  0.60429000  0.53470000  0.36320000  1.0
  C  C184  1  0.64149000  0.56341000  0.49510000  1.0
  C  C185  1  0.67170000  0.54028000  0.67920000  1.0
  C  C186  1  0.70749000  0.56963000  0.79760000  1.0
  C  C187  1  0.75835000  0.51204000  0.08320000  1.0
  C  C188  1  0.80770000  0.50370000  0.13200000  1.0
  C  C189  1  0.82450000  0.45670000  0.21600000  1.0
  C  C190  1  0.78551000  0.41931000  0.27370000  1.0
  C  C191  1  0.73820000  0.42890000  0.24160000  1.0
  C  C192  1  0.72240000  0.47690000  0.15590000  1.0
  C  C193  1  0.80090000  0.36830000  0.37500000  1.0
  C  C194  1  0.26843000  0.10404000  0.52600000  1.0
  C  C195  1  0.21248000  0.12190000  0.24110000  1.0
  C  C196  1  0.18328000  0.14506000  0.06120000  1.0
  C  C197  1  0.14691000  0.11563000  0.93380000  1.0
  C  C198  1  0.61769000  0.63612000  0.23330000  1.0
  C  C199  1  0.58330000  0.60726000  0.10930000  1.0
  C  C200  1  0.07629000  0.05620000  0.67880000  1.0
  C  C201  1  0.10429000  0.03470000  0.86320000  1.0
  C  C202  1  0.14149000  0.06341000  0.99510000  1.0
  C  C203  1  0.17170000  0.04028000  0.17920000  1.0
  C  C204  1  0.20749000  0.06963000  0.29760000  1.0
  C  C205  1  0.25835000  0.01204000  0.58320000  1.0
  C  C206  1  0.30770000  0.00370000  0.63200000  1.0
  C  C207  1  0.32450000  0.95670000  0.71600000  1.0
  C  C208  1  0.28551000  0.91931000  0.77370000  1.0
  C  C209  1  0.23820000  0.92890000  0.74160000  1.0
  C  C210  1  0.22240000  0.97690000  0.65590000  1.0
  C  C211  1  0.30090000  0.86830000  0.87500000  1.0
  C  C212  1  0.23157000  0.39596000  0.02600000  1.0
  C  C213  1  0.28752000  0.37810000  0.74110000  1.0
  C  C214  1  0.31672000  0.35494000  0.56120000  1.0
  C  C215  1  0.35309000  0.38437000  0.43380000  1.0
  C  C216  1  0.88231000  0.86388000  0.73330000  1.0
  C  C217  1  0.91670000  0.89274000  0.60930000  1.0
  C  C218  1  0.42371000  0.44380000  0.17880000  1.0
  C  C219  1  0.39571000  0.46530000  0.36320000  1.0
  C  C220  1  0.35851000  0.43659000  0.49510000  1.0
  C  C221  1  0.32830000  0.45972000  0.67920000  1.0
  C  C222  1  0.29251000  0.43037000  0.79760000  1.0
  C  C223  1  0.24165000  0.48796000  0.08320000  1.0
  C  C224  1  0.19230000  0.49630000  0.13200000  1.0
  C  C225  1  0.17550000  0.54330000  0.21600000  1.0
  C  C226  1  0.21449000  0.58069000  0.27370000  1.0
  C  C227  1  0.26180000  0.57110000  0.24160000  1.0
  C  C228  1  0.27760000  0.52310000  0.15590000  1.0
  C  C229  1  0.19910000  0.63170000  0.37500000  1.0
  C  C230  1  0.73157000  0.89596000  0.52600000  1.0
  C  C231  1  0.78752000  0.87810000  0.24110000  1.0
  C  C232  1  0.81672000  0.85494000  0.06120000  1.0
  C  C233  1  0.85309000  0.88437000  0.93380000  1.0
  C  C234  1  0.38231000  0.36388000  0.23330000  1.0
  C  C235  1  0.41670000  0.39274000  0.10930000  1.0
  C  C236  1  0.92371000  0.94380000  0.67880000  1.0
  C  C237  1  0.89571000  0.96530000  0.86320000  1.0
  C  C238  1  0.85851000  0.93659000  0.99510000  1.0
  C  C239  1  0.82830000  0.95972000  0.17920000  1.0
  C  C240  1  0.79251000  0.93037000  0.29760000  1.0
  C  C241  1  0.74165000  0.98796000  0.58320000  1.0
  C  C242  1  0.69230000  0.99630000  0.63200000  1.0
  C  C243  1  0.67550000  0.04330000  0.71600000  1.0
  C  C244  1  0.71449000  0.08069000  0.77370000  1.0
  C  C245  1  0.76180000  0.07110000  0.74160000  1.0
  C  C246  1  0.77760000  0.02310000  0.65590000  1.0
  C  C247  1  0.69910000  0.13170000  0.87500000  1.0
  N  N248  1  0.35842000  0.75120000  0.10770000  1.0
  N  N249  1  0.44014000  0.74393000  0.01930000  1.0
  N  N250  1  0.85842000  0.25120000  0.60770000  1.0
  N  N251  1  0.94014000  0.24393000  0.51930000  1.0
  N  N252  1  0.64158000  0.24880000  0.10770000  1.0
  N  N253  1  0.55986000  0.25607000  0.01930000  1.0
  N  N254  1  0.14158000  0.74880000  0.60770000  1.0
  N  N255  1  0.05986000  0.75607000  0.51930000  1.0
  N  N256  1  0.75120000  0.64158000  0.89230000  1.0
  N  N257  1  0.74393000  0.55986000  0.98070000  1.0
  N  N258  1  0.25120000  0.14158000  0.39230000  1.0
  N  N259  1  0.24393000  0.05986000  0.48070000  1.0
  N  N260  1  0.24880000  0.35842000  0.89230000  1.0
  N  N261  1  0.25607000  0.44014000  0.98070000  1.0
  N  N262  1  0.74880000  0.85842000  0.39230000  1.0
  N  N263  1  0.75607000  0.94014000  0.48070000  1.0
  O  O264  1  0.25349000  0.77667000  0.40950000  1.0
  O  O265  1  0.66521000  0.77711000  0.62000000  1.0
  O  O266  1  0.63560000  0.85270000  0.59600000  1.0
  O  O267  1  0.75349000  0.27667000  0.90950000  1.0
  O  O268  1  0.16521000  0.27711000  0.12000000  1.0
  O  O269  1  0.13560000  0.35270000  0.09600000  1.0
  O  O270  1  0.74651000  0.22333000  0.40950000  1.0
  O  O271  1  0.33479000  0.22289000  0.62000000  1.0
  O  O272  1  0.36440000  0.14730000  0.59600000  1.0
  O  O273  1  0.24651000  0.72333000  0.90950000  1.0
  O  O274  1  0.83479000  0.72289000  0.12000000  1.0
  O  O275  1  0.86440000  0.64730000  0.09600000  1.0
  O  O276  1  0.77667000  0.74651000  0.59050000  1.0
  O  O277  1  0.77711000  0.33479000  0.38000000  1.0
  O  O278  1  0.85270000  0.36440000  0.40400000  1.0
  O  O279  1  0.27667000  0.24651000  0.09050000  1.0
  O  O280  1  0.27711000  0.83479000  0.88000000  1.0
  O  O281  1  0.35270000  0.86440000  0.90400000  1.0
  O  O282  1  0.22333000  0.25349000  0.59050000  1.0
  O  O283  1  0.22289000  0.66521000  0.38000000  1.0
  O  O284  1  0.14730000  0.63560000  0.40400000  1.0
  O  O285  1  0.72333000  0.75349000  0.09050000  1.0
  O  O286  1  0.72289000  0.16521000  0.88000000  1.0
  O  O287  1  0.64730000  0.13560000  0.90400000  1.0
