# generated using pymatgen
data_Zr3H26(C11O4)4
_symmetry_space_group_name_H-M   'P 1'
_cell_length_a   16.79200000
_cell_length_b   41.04650000
_cell_length_c   41.04650000
_cell_angle_alpha   120.00000000
_cell_angle_beta   90.00000000
_cell_angle_gamma   90.00000000
_symmetry_Int_Tables_number   1
_chemical_formula_structural   Zr3H26(C11O4)4
_chemical_formula_sum   'Zr18 H156 C264 O96'
_cell_volume   24501.08514214
_cell_formula_units_Z   6
loop_
 _symmetry_equiv_pos_site_id
 _symmetry_equiv_pos_as_xyz
  1  'x, y, z'
loop_
 _atom_site_type_symbol
 _atom_site_label
 _atom_site_symmetry_multiplicity
 _atom_site_fract_x
 _atom_site_fract_y
 _atom_site_fract_z
 _atom_site_occupancy
  Zr  Zr0  1  0.10288000  0.45821000  0.45821000  1.0
  Zr  Zr1  1  0.00000000  0.93330000  0.46665000  1.0
  Zr  Zr2  1  0.89712000  0.45821000  0.00000000  1.0
  Zr  Zr3  1  0.10288000  0.00000000  0.45821000  1.0
  Zr  Zr4  1  0.89712000  0.54179000  0.54179000  1.0
  Zr  Zr5  1  0.89712000  0.00000000  0.54179000  1.0
  Zr  Zr6  1  0.89712000  0.00000000  0.45821000  1.0
  Zr  Zr7  1  0.10288000  0.54179000  0.54179000  1.0
  Zr  Zr8  1  0.10288000  0.45821000  0.00000000  1.0
  Zr  Zr9  1  0.89712000  0.45821000  0.45821000  1.0
  Zr  Zr10  1  0.10288000  0.00000000  0.54179000  1.0
  Zr  Zr11  1  0.10288000  0.54179000  0.00000000  1.0
  Zr  Zr12  1  0.89712000  0.54179000  0.00000000  1.0
  Zr  Zr13  1  0.00000000  0.06670000  0.53335000  1.0
  Zr  Zr14  1  0.00000000  0.53335000  0.46665000  1.0
  Zr  Zr15  1  0.00000000  0.53335000  0.06670000  1.0
  Zr  Zr16  1  0.00000000  0.46665000  0.93330000  1.0
  Zr  Zr17  1  0.00000000  0.46665000  0.53335000  1.0
  H  H18  1  0.85407000  0.60174000  0.00000000  1.0
  H  H19  1  0.18268000  0.78188000  0.31295000  1.0
  H  H20  1  0.85407000  0.39826000  0.39826000  1.0
  H  H21  1  0.18268000  0.68705000  0.46893000  1.0
  H  H22  1  0.24925000  0.00000000  0.43964000  1.0
  H  H23  1  0.65592000  0.13608000  0.68579000  1.0
  H  H24  1  0.34408000  0.54971000  0.86392000  1.0
  H  H25  1  0.78158000  0.75217000  0.24783000  1.0
  H  H26  1  0.73205000  0.54885000  0.63453000  1.0
  H  H27  1  0.42820000  0.33241000  0.50126000  1.0
  H  H28  1  0.42820000  0.66759000  0.49874000  1.0
  H  H29  1  0.57180000  0.49874000  0.66759000  1.0
  H  H30  1  0.18268000  0.46893000  0.78188000  1.0
  H  H31  1  0.81732000  0.21812000  0.53107000  1.0
  H  H32  1  0.42820000  0.83115000  0.49874000  1.0
  H  H33  1  0.26795000  0.91432000  0.54885000  1.0
  H  H34  1  0.89288000  0.53219000  0.16769000  1.0
  H  H35  1  0.42820000  0.50126000  0.16885000  1.0
  H  H36  1  0.42820000  0.33241000  0.83115000  1.0
  H  H37  1  0.75075000  0.00000000  0.43964000  1.0
  H  H38  1  0.34408000  0.86392000  0.54971000  1.0
  H  H39  1  0.89288000  0.16769000  0.53219000  1.0
  H  H40  1  0.24925000  0.00000000  0.56036000  1.0
  H  H41  1  0.10712000  0.83231000  0.46781000  1.0
  H  H42  1  0.42820000  0.16885000  0.50126000  1.0
  H  H43  1  0.26795000  0.54885000  0.63453000  1.0
  H  H44  1  0.78158000  0.50434000  0.75217000  1.0
  H  H45  1  0.81732000  0.46893000  0.68705000  1.0
  H  H46  1  0.73205000  0.45115000  0.36547000  1.0
  H  H47  1  0.26795000  0.36547000  0.91432000  1.0
  H  H48  1  0.81732000  0.31295000  0.53107000  1.0
  H  H49  1  0.18268000  0.31295000  0.53107000  1.0
  H  H50  1  0.73205000  0.45115000  0.08568000  1.0
  H  H51  1  0.89288000  0.46781000  0.83231000  1.0
  H  H52  1  0.34408000  0.68579000  0.54971000  1.0
  H  H53  1  0.89288000  0.83231000  0.46781000  1.0
  H  H54  1  0.34408000  0.31421000  0.45029000  1.0
  H  H55  1  0.57180000  0.16885000  0.66759000  1.0
  H  H56  1  0.34408000  0.45029000  0.13608000  1.0
  H  H57  1  0.42820000  0.16885000  0.66759000  1.0
  H  H58  1  0.81732000  0.21812000  0.68705000  1.0
  H  H59  1  0.26795000  0.45115000  0.08568000  1.0
  H  H60  1  0.85407000  0.00000000  0.60174000  1.0
  H  H61  1  0.18268000  0.21812000  0.68705000  1.0
  H  H62  1  0.85407000  0.39826000  0.00000000  1.0
  H  H63  1  0.42820000  0.49874000  0.66759000  1.0
  H  H64  1  0.89288000  0.63550000  0.16769000  1.0
  H  H65  1  0.10712000  0.53219000  0.16769000  1.0
  H  H66  1  0.73205000  0.36547000  0.91432000  1.0
  H  H67  1  0.10712000  0.53219000  0.36450000  1.0
  H  H68  1  0.73205000  0.63453000  0.54885000  1.0
  H  H69  1  0.81732000  0.78188000  0.31295000  1.0
  H  H70  1  0.89288000  0.53219000  0.36450000  1.0
  H  H71  1  0.26795000  0.45115000  0.36547000  1.0
  H  H72  1  0.42820000  0.50126000  0.33241000  1.0
  H  H73  1  0.34408000  0.13608000  0.68579000  1.0
  H  H74  1  0.18268000  0.21812000  0.53107000  1.0
  H  H75  1  0.89288000  0.36450000  0.53219000  1.0
  H  H76  1  0.14593000  0.39826000  0.39826000  1.0
  H  H77  1  0.26795000  0.63453000  0.08568000  1.0
  H  H78  1  0.57180000  0.16885000  0.50126000  1.0
  H  H79  1  0.10712000  0.16769000  0.53219000  1.0
  H  H80  1  0.57180000  0.49874000  0.83115000  1.0
  H  H81  1  0.34408000  0.31421000  0.86392000  1.0
  H  H82  1  0.73205000  0.63453000  0.08568000  1.0
  H  H83  1  0.78158000  0.24783000  0.49566000  1.0
  H  H84  1  0.10712000  0.36450000  0.53219000  1.0
  H  H85  1  0.18268000  0.31295000  0.78188000  1.0
  H  H86  1  0.75075000  0.56036000  0.56036000  1.0
  H  H87  1  0.24925000  0.43964000  0.00000000  1.0
  H  H88  1  0.73205000  0.54885000  0.91432000  1.0
  H  H89  1  0.34408000  0.45029000  0.31421000  1.0
  H  H90  1  0.21842000  0.75217000  0.50434000  1.0
  H  H91  1  0.26795000  0.08568000  0.45115000  1.0
  H  H92  1  0.65592000  0.31421000  0.86392000  1.0
  H  H93  1  0.10712000  0.63550000  0.46781000  1.0
  H  H94  1  0.75075000  0.00000000  0.56036000  1.0
  H  H95  1  0.57180000  0.83115000  0.49874000  1.0
  H  H96  1  0.78158000  0.24783000  0.75217000  1.0
  H  H97  1  0.18268000  0.68705000  0.21812000  1.0
  H  H98  1  0.10712000  0.16769000  0.63550000  1.0
  H  H99  1  0.57180000  0.33241000  0.50126000  1.0
  H  H100  1  0.89288000  0.46781000  0.63550000  1.0
  H  H101  1  0.89288000  0.83231000  0.36450000  1.0
  H  H102  1  0.65592000  0.68579000  0.54971000  1.0
  H  H103  1  0.21842000  0.49566000  0.24783000  1.0
  H  H104  1  0.21842000  0.50434000  0.75217000  1.0
  H  H105  1  0.24925000  0.56036000  0.00000000  1.0
  H  H106  1  0.81732000  0.68705000  0.46893000  1.0
  H  H107  1  0.65592000  0.86392000  0.31421000  1.0
  H  H108  1  0.10712000  0.63550000  0.16769000  1.0
  H  H109  1  0.73205000  0.36547000  0.45115000  1.0
  H  H110  1  0.57180000  0.50126000  0.16885000  1.0
  H  H111  1  0.34408000  0.68579000  0.13608000  1.0
  H  H112  1  0.65592000  0.45029000  0.31421000  1.0
  H  H113  1  0.81732000  0.68705000  0.21812000  1.0
  H  H114  1  0.57180000  0.66759000  0.49874000  1.0
  H  H115  1  0.65592000  0.45029000  0.13608000  1.0
  H  H116  1  0.65592000  0.31421000  0.45029000  1.0
  H  H117  1  0.18268000  0.53107000  0.21812000  1.0
  H  H118  1  0.42820000  0.49874000  0.83115000  1.0
  H  H119  1  0.75075000  0.43964000  0.00000000  1.0
  H  H120  1  0.57180000  0.50126000  0.33241000  1.0
  H  H121  1  0.10712000  0.83231000  0.36450000  1.0
  H  H122  1  0.89288000  0.36450000  0.83231000  1.0
  H  H123  1  0.89288000  0.16769000  0.63550000  1.0
  H  H124  1  0.65592000  0.86392000  0.54971000  1.0
  H  H125  1  0.10712000  0.46781000  0.63550000  1.0
  H  H126  1  0.57180000  0.83115000  0.33241000  1.0
  H  H127  1  0.78158000  0.49566000  0.24783000  1.0
  H  H128  1  0.18268000  0.46893000  0.68705000  1.0
  H  H129  1  0.14593000  0.00000000  0.60174000  1.0
  H  H130  1  0.73205000  0.08568000  0.63453000  1.0
  H  H131  1  0.14593000  0.60174000  0.60174000  1.0
  H  H132  1  0.73205000  0.91432000  0.36547000  1.0
  H  H133  1  0.26795000  0.54885000  0.91432000  1.0
  H  H134  1  0.73205000  0.91432000  0.54885000  1.0
  H  H135  1  0.10712000  0.36450000  0.83231000  1.0
  H  H136  1  0.89288000  0.63550000  0.46781000  1.0
  H  H137  1  0.65592000  0.68579000  0.13608000  1.0
  H  H138  1  0.21842000  0.75217000  0.24783000  1.0
  H  H139  1  0.26795000  0.36547000  0.45115000  1.0
  H  H140  1  0.81732000  0.53107000  0.21812000  1.0
  H  H141  1  0.21842000  0.24783000  0.49566000  1.0
  H  H142  1  0.24925000  0.43964000  0.43964000  1.0
  H  H143  1  0.81732000  0.46893000  0.78188000  1.0
  H  H144  1  0.26795000  0.91432000  0.36547000  1.0
  H  H145  1  0.34408000  0.86392000  0.31421000  1.0
  H  H146  1  0.14593000  0.00000000  0.39826000  1.0
  H  H147  1  0.57180000  0.66759000  0.16885000  1.0
  H  H148  1  0.65592000  0.54971000  0.86392000  1.0
  H  H149  1  0.24925000  0.56036000  0.56036000  1.0
  H  H150  1  0.26795000  0.08568000  0.63453000  1.0
  H  H151  1  0.73205000  0.08568000  0.45115000  1.0
  H  H152  1  0.42820000  0.66759000  0.16885000  1.0
  H  H153  1  0.42820000  0.83115000  0.33241000  1.0
  H  H154  1  0.81732000  0.53107000  0.31295000  1.0
  H  H155  1  0.10712000  0.46781000  0.83231000  1.0
  H  H156  1  0.14593000  0.60174000  0.00000000  1.0
  H  H157  1  0.85407000  0.00000000  0.39826000  1.0
  H  H158  1  0.78158000  0.75217000  0.50434000  1.0
  H  H159  1  0.18268000  0.78188000  0.46893000  1.0
  H  H160  1  0.75075000  0.56036000  0.00000000  1.0
  H  H161  1  0.75075000  0.43964000  0.43964000  1.0
  H  H162  1  0.57180000  0.33241000  0.83115000  1.0
  H  H163  1  0.65592000  0.13608000  0.45029000  1.0
  H  H164  1  0.14593000  0.39826000  0.00000000  1.0
  H  H165  1  0.34408000  0.54971000  0.68579000  1.0
  H  H166  1  0.81732000  0.78188000  0.46893000  1.0
  H  H167  1  0.34408000  0.13608000  0.45029000  1.0
  H  H168  1  0.85407000  0.60174000  0.60174000  1.0
  H  H169  1  0.65592000  0.54971000  0.68579000  1.0
  H  H170  1  0.26795000  0.63453000  0.54885000  1.0
  H  H171  1  0.21842000  0.24783000  0.75217000  1.0
  H  H172  1  0.81732000  0.31295000  0.78188000  1.0
  H  H173  1  0.18268000  0.53107000  0.31295000  1.0
  C  C174  1  0.32237000  0.50769000  0.78530000  1.0
  C  C175  1  0.79678000  0.18956000  0.67634000  1.0
  C  C176  1  0.72553000  0.69151000  0.18333000  1.0
  C  C177  1  0.70607000  0.14421000  0.67487000  1.0
  C  C178  1  0.13339000  0.49331000  0.09024000  1.0
  C  C179  1  0.72553000  0.49182000  0.30849000  1.0
  C  C180  1  0.86661000  0.90976000  0.40307000  1.0
  C  C181  1  0.84108000  0.51410000  0.35431000  1.0
  C  C182  1  0.28282000  0.50527000  0.75263000  1.0
  C  C183  1  0.54421000  0.49481000  0.30612000  1.0
  C  C184  1  0.84108000  0.48590000  0.84021000  1.0
  C  C185  1  0.54421000  0.50519000  0.69388000  1.0
  C  C186  1  0.67763000  0.49231000  0.21470000  1.0
  C  C187  1  0.59043000  0.72436000  0.21498000  1.0
  C  C188  1  0.79678000  0.81044000  0.32366000  1.0
  C  C189  1  0.17941000  0.50786000  0.62872000  1.0
  C  C190  1  0.24817000  0.53073000  0.88567000  1.0
  C  C191  1  0.86661000  0.59693000  0.50669000  1.0
  C  C192  1  0.86661000  0.90976000  0.50669000  1.0
  C  C193  1  0.15892000  0.48590000  0.84021000  1.0
  C  C194  1  0.71718000  0.49473000  0.24737000  1.0
  C  C195  1  0.27447000  0.18333000  0.49182000  1.0
  C  C196  1  0.75183000  0.88567000  0.53073000  1.0
  C  C197  1  0.59043000  0.27564000  0.78502000  1.0
  C  C198  1  0.70607000  0.85579000  0.32513000  1.0
  C  C199  1  0.71718000  0.50527000  0.75263000  1.0
  C  C200  1  0.32237000  0.72239000  0.50769000  1.0
  C  C201  1  0.29393000  0.46934000  0.32513000  1.0
  C  C202  1  0.17941000  0.62872000  0.12086000  1.0
  C  C203  1  0.20322000  0.67634000  0.18956000  1.0
  C  C204  1  0.17941000  0.12086000  0.62872000  1.0
  C  C205  1  0.17941000  0.62872000  0.50786000  1.0
  C  C206  1  0.13339000  0.40307000  0.90976000  1.0
  C  C207  1  0.45579000  0.30612000  0.81131000  1.0
  C  C208  1  0.13339000  0.09024000  0.49331000  1.0
  C  C209  1  0.54699000  0.75538000  0.24463000  1.0
  C  C210  1  0.29393000  0.67487000  0.14421000  1.0
  C  C211  1  0.72553000  0.18333000  0.69151000  1.0
  C  C212  1  0.54421000  0.69388000  0.50519000  1.0
  C  C213  1  0.84108000  0.35431000  0.84021000  1.0
  C  C214  1  0.20322000  0.51322000  0.18956000  1.0
  C  C215  1  0.72553000  0.49182000  0.18333000  1.0
  C  C216  1  0.32237000  0.78530000  0.50769000  1.0
  C  C217  1  0.20322000  0.32366000  0.51322000  1.0
  C  C218  1  0.70607000  0.53066000  0.67487000  1.0
  C  C219  1  0.40957000  0.78502000  0.27564000  1.0
  C  C220  1  0.70607000  0.53066000  0.85579000  1.0
  C  C221  1  0.40957000  0.49062000  0.27564000  1.0
  C  C222  1  0.70607000  0.46934000  0.14421000  1.0
  C  C223  1  0.79678000  0.67634000  0.18956000  1.0
  C  C224  1  0.71718000  0.75264000  0.24737000  1.0
  C  C225  1  0.45579000  0.18869000  0.69388000  1.0
  C  C226  1  0.67763000  0.72239000  0.21470000  1.0
  C  C227  1  0.86661000  0.40307000  0.49331000  1.0
  C  C228  1  0.67763000  0.50769000  0.72239000  1.0
  C  C229  1  0.15892000  0.35431000  0.84021000  1.0
  C  C230  1  0.28282000  0.49473000  0.24737000  1.0
  C  C231  1  0.54421000  0.81131000  0.30612000  1.0
  C  C232  1  0.70607000  0.67487000  0.14421000  1.0
  C  C233  1  0.45579000  0.30612000  0.49481000  1.0
  C  C234  1  0.29393000  0.85579000  0.53066000  1.0
  C  C235  1  0.84108000  0.15979000  0.51410000  1.0
  C  C236  1  0.15892000  0.15979000  0.64569000  1.0
  C  C237  1  0.84108000  0.48590000  0.64569000  1.0
  C  C238  1  0.67763000  0.49231000  0.27761000  1.0
  C  C239  1  0.15892000  0.51410000  0.15979000  1.0
  C  C240  1  0.28282000  0.24736000  0.49473000  1.0
  C  C241  1  0.40957000  0.21498000  0.72436000  1.0
  C  C242  1  0.75183000  0.35494000  0.88567000  1.0
  C  C243  1  0.54421000  0.50519000  0.81131000  1.0
  C  C244  1  0.15892000  0.48590000  0.64569000  1.0
  C  C245  1  0.24817000  0.88567000  0.53073000  1.0
  C  C246  1  0.84108000  0.84021000  0.48590000  1.0
  C  C247  1  0.72553000  0.30849000  0.49182000  1.0
  C  C248  1  0.45579000  0.49481000  0.18869000  1.0
  C  C249  1  0.82059000  0.62872000  0.50786000  1.0
  C  C250  1  0.28282000  0.24736000  0.75263000  1.0
  C  C251  1  0.40957000  0.50938000  0.72436000  1.0
  C  C252  1  0.82059000  0.12086000  0.62872000  1.0
  C  C253  1  0.72553000  0.30849000  0.81667000  1.0
  C  C254  1  0.82059000  0.62872000  0.12086000  1.0
  C  C255  1  0.79678000  0.81044000  0.48678000  1.0
  C  C256  1  0.86661000  0.50669000  0.59693000  1.0
  C  C257  1  0.40957000  0.50938000  0.78502000  1.0
  C  C258  1  0.54421000  0.30612000  0.49481000  1.0
  C  C259  1  0.86661000  0.09024000  0.49331000  1.0
  C  C260  1  0.86661000  0.50669000  0.90976000  1.0
  C  C261  1  0.15892000  0.84021000  0.48590000  1.0
  C  C262  1  0.45579000  0.18869000  0.49481000  1.0
  C  C263  1  0.86661000  0.49331000  0.09024000  1.0
  C  C264  1  0.82059000  0.37128000  0.49214000  1.0
  C  C265  1  0.32237000  0.50769000  0.72239000  1.0
  C  C266  1  0.75183000  0.88567000  0.35494000  1.0
  C  C267  1  0.29393000  0.46934000  0.14421000  1.0
  C  C268  1  0.54421000  0.18869000  0.69388000  1.0
  C  C269  1  0.45579000  0.50519000  0.81131000  1.0
  C  C270  1  0.20322000  0.48678000  0.81044000  1.0
  C  C271  1  0.27447000  0.69151000  0.18333000  1.0
  C  C272  1  0.20322000  0.18956000  0.67634000  1.0
  C  C273  1  0.82059000  0.49214000  0.12086000  1.0
  C  C274  1  0.45579000  0.69388000  0.18869000  1.0
  C  C275  1  0.13339000  0.40307000  0.49331000  1.0
  C  C276  1  0.29393000  0.53066000  0.67487000  1.0
  C  C277  1  0.15892000  0.35431000  0.51410000  1.0
  C  C278  1  0.70607000  0.46934000  0.32513000  1.0
  C  C279  1  0.59043000  0.49062000  0.21498000  1.0
  C  C280  1  0.45579000  0.81131000  0.50519000  1.0
  C  C281  1  0.29393000  0.85579000  0.32513000  1.0
  C  C282  1  0.45301000  0.24462000  0.75537000  1.0
  C  C283  1  0.67763000  0.78530000  0.27761000  1.0
  C  C284  1  0.75183000  0.64506000  0.53073000  1.0
  C  C285  1  0.84108000  0.51410000  0.15979000  1.0
  C  C286  1  0.86661000  0.09024000  0.59693000  1.0
  C  C287  1  0.17941000  0.49214000  0.37128000  1.0
  C  C288  1  0.72553000  0.81667000  0.50818000  1.0
  C  C289  1  0.24817000  0.88567000  0.35494000  1.0
  C  C290  1  0.40957000  0.27564000  0.78502000  1.0
  C  C291  1  0.15892000  0.64569000  0.48590000  1.0
  C  C292  1  0.15892000  0.84021000  0.35431000  1.0
  C  C293  1  0.59043000  0.72436000  0.50938000  1.0
  C  C294  1  0.54699000  0.75537000  0.51075000  1.0
  C  C295  1  0.40957000  0.21498000  0.49062000  1.0
  C  C296  1  0.24817000  0.11433000  0.64506000  1.0
  C  C297  1  0.79678000  0.32366000  0.51322000  1.0
  C  C298  1  0.27447000  0.69151000  0.50818000  1.0
  C  C299  1  0.84108000  0.15979000  0.64569000  1.0
  C  C300  1  0.86661000  0.40307000  0.90976000  1.0
  C  C301  1  0.54699000  0.48925000  0.24463000  1.0
  C  C302  1  0.79678000  0.32366000  0.81044000  1.0
  C  C303  1  0.27447000  0.81667000  0.30849000  1.0
  C  C304  1  0.13339000  0.59693000  0.09024000  1.0
  C  C305  1  0.71718000  0.24736000  0.49472000  1.0
  C  C306  1  0.24817000  0.35494000  0.88567000  1.0
  C  C307  1  0.13339000  0.90976000  0.40307000  1.0
  C  C308  1  0.27447000  0.30849000  0.81667000  1.0
  C  C309  1  0.79678000  0.48678000  0.81044000  1.0
  C  C310  1  0.20322000  0.81044000  0.48678000  1.0
  C  C311  1  0.59043000  0.27564000  0.49062000  1.0
  C  C312  1  0.29393000  0.14421000  0.67487000  1.0
  C  C313  1  0.59043000  0.78502000  0.50938000  1.0
  C  C314  1  0.86661000  0.49331000  0.40307000  1.0
  C  C315  1  0.17941000  0.12086000  0.49214000  1.0
  C  C316  1  0.84108000  0.64569000  0.48590000  1.0
  C  C317  1  0.70607000  0.32513000  0.46934000  1.0
  C  C318  1  0.82059000  0.87914000  0.37128000  1.0
  C  C319  1  0.27447000  0.50818000  0.69151000  1.0
  C  C320  1  0.27447000  0.30849000  0.49182000  1.0
  C  C321  1  0.84108000  0.64569000  0.15979000  1.0
  C  C322  1  0.67763000  0.27761000  0.49231000  1.0
  C  C323  1  0.75183000  0.11433000  0.46927000  1.0
  C  C324  1  0.15892000  0.64569000  0.15979000  1.0
  C  C325  1  0.71718000  0.24736000  0.75263000  1.0
  C  C326  1  0.13339000  0.50669000  0.59693000  1.0
  C  C327  1  0.29393000  0.32513000  0.85579000  1.0
  C  C328  1  0.75183000  0.53073000  0.64506000  1.0
  C  C329  1  0.13339000  0.59693000  0.50669000  1.0
  C  C330  1  0.82059000  0.37128000  0.87914000  1.0
  C  C331  1  0.54421000  0.49481000  0.18869000  1.0
  C  C332  1  0.45579000  0.81131000  0.30612000  1.0
  C  C333  1  0.27447000  0.49182000  0.18333000  1.0
  C  C334  1  0.24817000  0.46927000  0.11433000  1.0
  C  C335  1  0.67763000  0.21470000  0.49231000  1.0
  C  C336  1  0.72553000  0.81667000  0.30849000  1.0
  C  C337  1  0.54421000  0.69388000  0.18869000  1.0
  C  C338  1  0.54699000  0.24462000  0.75537000  1.0
  C  C339  1  0.67763000  0.72239000  0.50769000  1.0
  C  C340  1  0.24817000  0.64506000  0.11433000  1.0
  C  C341  1  0.59043000  0.21498000  0.49062000  1.0
  C  C342  1  0.59043000  0.50938000  0.72436000  1.0
  C  C343  1  0.67763000  0.50769000  0.78530000  1.0
  C  C344  1  0.70607000  0.67487000  0.53066000  1.0
  C  C345  1  0.72553000  0.50818000  0.81667000  1.0
  C  C346  1  0.70607000  0.14421000  0.46934000  1.0
  C  C347  1  0.24817000  0.35494000  0.46927000  1.0
  C  C348  1  0.24817000  0.64506000  0.53073000  1.0
  C  C349  1  0.54421000  0.81131000  0.50519000  1.0
  C  C350  1  0.24817000  0.46927000  0.35494000  1.0
  C  C351  1  0.27447000  0.49182000  0.30849000  1.0
  C  C352  1  0.82059000  0.87914000  0.50786000  1.0
  C  C353  1  0.40957000  0.72436000  0.21498000  1.0
  C  C354  1  0.32237000  0.27761000  0.78530000  1.0
  C  C355  1  0.75183000  0.11433000  0.64506000  1.0
  C  C356  1  0.24817000  0.53073000  0.64506000  1.0
  C  C357  1  0.17941000  0.50786000  0.87914000  1.0
  C  C358  1  0.27447000  0.18333000  0.69151000  1.0
  C  C359  1  0.54699000  0.51075000  0.75538000  1.0
  C  C360  1  0.86661000  0.59693000  0.09024000  1.0
  C  C361  1  0.13339000  0.50669000  0.90976000  1.0
  C  C362  1  0.54699000  0.24462000  0.48924000  1.0
  C  C363  1  0.17941000  0.87914000  0.50786000  1.0
  C  C364  1  0.40957000  0.72436000  0.50938000  1.0
  C  C365  1  0.59043000  0.21498000  0.72436000  1.0
  C  C366  1  0.54421000  0.18869000  0.49481000  1.0
  C  C367  1  0.20322000  0.51322000  0.32366000  1.0
  C  C368  1  0.79678000  0.48678000  0.67634000  1.0
  C  C369  1  0.79678000  0.67634000  0.48678000  1.0
  C  C370  1  0.54421000  0.30612000  0.81131000  1.0
  C  C371  1  0.67763000  0.21470000  0.72239000  1.0
  C  C372  1  0.29393000  0.32513000  0.46934000  1.0
  C  C373  1  0.28282000  0.75264000  0.50528000  1.0
  C  C374  1  0.59043000  0.78502000  0.27564000  1.0
  C  C375  1  0.82059000  0.50786000  0.87914000  1.0
  C  C376  1  0.45301000  0.75538000  0.51075000  1.0
  C  C377  1  0.40957000  0.27564000  0.49062000  1.0
  C  C378  1  0.84108000  0.35431000  0.51410000  1.0
  C  C379  1  0.72553000  0.69151000  0.50818000  1.0
  C  C380  1  0.82059000  0.50786000  0.62872000  1.0
  C  C381  1  0.59043000  0.50938000  0.78502000  1.0
  C  C382  1  0.24817000  0.11433000  0.46927000  1.0
  C  C383  1  0.45579000  0.50519000  0.69388000  1.0
  C  C384  1  0.40957000  0.78502000  0.50938000  1.0
  C  C385  1  0.72553000  0.50818000  0.69151000  1.0
  C  C386  1  0.45301000  0.48925000  0.24463000  1.0
  C  C387  1  0.75183000  0.46927000  0.11433000  1.0
  C  C388  1  0.75183000  0.64506000  0.11433000  1.0
  C  C389  1  0.27447000  0.50818000  0.81667000  1.0
  C  C390  1  0.32237000  0.78530000  0.27761000  1.0
  C  C391  1  0.70607000  0.32513000  0.85579000  1.0
  C  C392  1  0.40957000  0.49062000  0.21498000  1.0
  C  C393  1  0.67763000  0.78530000  0.50769000  1.0
  C  C394  1  0.79678000  0.51322000  0.18956000  1.0
  C  C395  1  0.72553000  0.18333000  0.49182000  1.0
  C  C396  1  0.32237000  0.49231000  0.21470000  1.0
  C  C397  1  0.82059000  0.12086000  0.49214000  1.0
  C  C398  1  0.13339000  0.90976000  0.50669000  1.0
  C  C399  1  0.13339000  0.09024000  0.59693000  1.0
  C  C400  1  0.67763000  0.27761000  0.78530000  1.0
  C  C401  1  0.71718000  0.75263000  0.50527000  1.0
  C  C402  1  0.75183000  0.35494000  0.46927000  1.0
  C  C403  1  0.45579000  0.49481000  0.30612000  1.0
  C  C404  1  0.82059000  0.49214000  0.37128000  1.0
  C  C405  1  0.20322000  0.32366000  0.81044000  1.0
  C  C406  1  0.29393000  0.14421000  0.46934000  1.0
  C  C407  1  0.75183000  0.53073000  0.88567000  1.0
  C  C408  1  0.13339000  0.49331000  0.40307000  1.0
  C  C409  1  0.29393000  0.67487000  0.53066000  1.0
  C  C410  1  0.75183000  0.46927000  0.35494000  1.0
  C  C411  1  0.15892000  0.51410000  0.35431000  1.0
  C  C412  1  0.32237000  0.72239000  0.21470000  1.0
  C  C413  1  0.17941000  0.37128000  0.87914000  1.0
  C  C414  1  0.20322000  0.48678000  0.67634000  1.0
  C  C415  1  0.17941000  0.37128000  0.49214000  1.0
  C  C416  1  0.32237000  0.21470000  0.72239000  1.0
  C  C417  1  0.45301000  0.24462000  0.48925000  1.0
  C  C418  1  0.28282000  0.75263000  0.24736000  1.0
  C  C419  1  0.27447000  0.81667000  0.50818000  1.0
  C  C420  1  0.32237000  0.21470000  0.49231000  1.0
  C  C421  1  0.20322000  0.18956000  0.51322000  1.0
  C  C422  1  0.29393000  0.53066000  0.85579000  1.0
  C  C423  1  0.20322000  0.67634000  0.48678000  1.0
  C  C424  1  0.17941000  0.87914000  0.37128000  1.0
  C  C425  1  0.84108000  0.84021000  0.35431000  1.0
  C  C426  1  0.32237000  0.27761000  0.49231000  1.0
  C  C427  1  0.79678000  0.51322000  0.32366000  1.0
  C  C428  1  0.79678000  0.18956000  0.51322000  1.0
  C  C429  1  0.15892000  0.15979000  0.51410000  1.0
  C  C430  1  0.32237000  0.49231000  0.27761000  1.0
  C  C431  1  0.20322000  0.81044000  0.32366000  1.0
  C  C432  1  0.45301000  0.51075000  0.75537000  1.0
  C  C433  1  0.45301000  0.75537000  0.24462000  1.0
  C  C434  1  0.17941000  0.49214000  0.12086000  1.0
  C  C435  1  0.45579000  0.69388000  0.50519000  1.0
  C  C436  1  0.59043000  0.49062000  0.27564000  1.0
  C  C437  1  0.70607000  0.85579000  0.53066000  1.0
  O  O438  1  0.10545000  0.48302000  0.96604000  1.0
  O  O439  1  0.85000000  0.41465000  0.94533000  1.0
  O  O440  1  0.07719000  0.58103000  0.09965000  1.0
  O  O441  1  0.22834000  0.46221000  0.00000000  1.0
  O  O442  1  0.22834000  0.00000000  0.53779000  1.0
  O  O443  1  0.10545000  0.51698000  0.03396000  1.0
  O  O444  1  0.22834000  0.00000000  0.46221000  1.0
  O  O445  1  0.89455000  0.51698000  0.03396000  1.0
  O  O446  1  0.15000000  0.58535000  0.53068000  1.0
  O  O447  1  0.07719000  0.51862000  0.41897000  1.0
  O  O448  1  0.15000000  0.05467000  0.46932000  1.0
  O  O449  1  0.89455000  0.96604000  0.48302000  1.0
  O  O450  1  0.07719000  0.90035000  0.48138000  1.0
  O  O451  1  0.15000000  0.41465000  0.94533000  1.0
  O  O452  1  0.00000000  0.03397000  0.47374000  1.0
  O  O453  1  0.00000000  0.47374000  0.43977000  1.0
  O  O454  1  0.07719000  0.09965000  0.58103000  1.0
  O  O455  1  0.89455000  0.03396000  0.51698000  1.0
  O  O456  1  0.00000000  0.43977000  0.47374000  1.0
  O  O457  1  0.92281000  0.58103000  0.48138000  1.0
  O  O458  1  0.90903000  0.40701000  0.00000000  1.0
  O  O459  1  0.77166000  0.46221000  0.00000000  1.0
  O  O460  1  0.00000000  0.47374000  0.03397000  1.0
  O  O461  1  0.92281000  0.41897000  0.51862000  1.0
  O  O462  1  0.90903000  0.00000000  0.59299000  1.0
  O  O463  1  0.92281000  0.09965000  0.51862000  1.0
  O  O464  1  0.92281000  0.51862000  0.09965000  1.0
  O  O465  1  0.90903000  0.59299000  0.59299000  1.0
  O  O466  1  0.15000000  0.94533000  0.41465000  1.0
  O  O467  1  0.00000000  0.96603000  0.52626000  1.0
  O  O468  1  0.92281000  0.48138000  0.58103000  1.0
  O  O469  1  0.00000000  0.52626000  0.96603000  1.0
  O  O470  1  0.77166000  0.00000000  0.53779000  1.0
  O  O471  1  0.07719000  0.48138000  0.58103000  1.0
  O  O472  1  0.85000000  0.53068000  0.94533000  1.0
  O  O473  1  0.85000000  0.46932000  0.41465000  1.0
  O  O474  1  0.85000000  0.46932000  0.05467000  1.0
  O  O475  1  0.92281000  0.41897000  0.90035000  1.0
  O  O476  1  0.85000000  0.05467000  0.58535000  1.0
  O  O477  1  0.10545000  0.48302000  0.51698000  1.0
  O  O478  1  0.09097000  0.40701000  0.00000000  1.0
  O  O479  1  0.00000000  0.96603000  0.43977000  1.0
  O  O480  1  0.90903000  0.59299000  0.00000000  1.0
  O  O481  1  0.92281000  0.90035000  0.48138000  1.0
  O  O482  1  0.10545000  0.03396000  0.51698000  1.0
  O  O483  1  0.85000000  0.41465000  0.46932000  1.0
  O  O484  1  0.92281000  0.51862000  0.41897000  1.0
  O  O485  1  0.09097000  0.59299000  0.00000000  1.0
  O  O486  1  0.15000000  0.53068000  0.94533000  1.0
  O  O487  1  0.92281000  0.48138000  0.90035000  1.0
  O  O488  1  0.07719000  0.51862000  0.09965000  1.0
  O  O489  1  0.07719000  0.48138000  0.90035000  1.0
  O  O490  1  0.10545000  0.51698000  0.48302000  1.0
  O  O491  1  0.15000000  0.58535000  0.05467000  1.0
  O  O492  1  0.15000000  0.94533000  0.53068000  1.0
  O  O493  1  0.89455000  0.48302000  0.96604000  1.0
  O  O494  1  0.15000000  0.05467000  0.58535000  1.0
  O  O495  1  0.00000000  0.56023000  0.52626000  1.0
  O  O496  1  0.89455000  0.51698000  0.48302000  1.0
  O  O497  1  0.85000000  0.58535000  0.53068000  1.0
  O  O498  1  0.89455000  0.48302000  0.51698000  1.0
  O  O499  1  0.07719000  0.41897000  0.90035000  1.0
  O  O500  1  0.92281000  0.09965000  0.58103000  1.0
  O  O501  1  0.77166000  0.53779000  0.53779000  1.0
  O  O502  1  0.07719000  0.09965000  0.51862000  1.0
  O  O503  1  0.07719000  0.41897000  0.51862000  1.0
  O  O504  1  0.15000000  0.46932000  0.05467000  1.0
  O  O505  1  0.00000000  0.52626000  0.56023000  1.0
  O  O506  1  0.77166000  0.53779000  0.00000000  1.0
  O  O507  1  0.09097000  0.59299000  0.59299000  1.0
  O  O508  1  0.85000000  0.94533000  0.53068000  1.0
  O  O509  1  0.07719000  0.90035000  0.41897000  1.0
  O  O510  1  0.22834000  0.53779000  0.53779000  1.0
  O  O511  1  0.00000000  0.56023000  0.03397000  1.0
  O  O512  1  0.09097000  0.00000000  0.40701000  1.0
  O  O513  1  0.15000000  0.53068000  0.58535000  1.0
  O  O514  1  0.22834000  0.53779000  0.00000000  1.0
  O  O515  1  0.77166000  0.00000000  0.46221000  1.0
  O  O516  1  0.85000000  0.58535000  0.05467000  1.0
  O  O517  1  0.90903000  0.40701000  0.40701000  1.0
  O  O518  1  0.09097000  0.40701000  0.40701000  1.0
  O  O519  1  0.90903000  0.00000000  0.40701000  1.0
  O  O520  1  0.92281000  0.58103000  0.09965000  1.0
  O  O521  1  0.85000000  0.94533000  0.41465000  1.0
  O  O522  1  0.09097000  0.00000000  0.59299000  1.0
  O  O523  1  0.77166000  0.46221000  0.46221000  1.0
  O  O524  1  0.15000000  0.41465000  0.46932000  1.0
  O  O525  1  0.85000000  0.53068000  0.58535000  1.0
  O  O526  1  0.07719000  0.58103000  0.48138000  1.0
  O  O527  1  0.15000000  0.46932000  0.41465000  1.0
  O  O528  1  0.85000000  0.05467000  0.46932000  1.0
  O  O529  1  0.22834000  0.46221000  0.46221000  1.0
  O  O530  1  0.10545000  0.96604000  0.48302000  1.0
  O  O531  1  0.00000000  0.03397000  0.56023000  1.0
  O  O532  1  0.00000000  0.43977000  0.96603000  1.0
  O  O533  1  0.92281000  0.90035000  0.41897000  1.0
