# generated using pymatgen
data_MnH2(CO2)2
_symmetry_space_group_name_H-M   'P 1'
_cell_length_a   10.15100000
_cell_length_b   11.69540000
_cell_length_c   14.91620000
_cell_angle_alpha   91.64200000
_cell_angle_beta   90.00000000
_cell_angle_gamma   90.00000000
_symmetry_Int_Tables_number   1
_chemical_formula_structural   MnH2(CO2)2
_chemical_formula_sum   'Mn12 H24 C24 O48'
_cell_volume   1770.12419552
_cell_formula_units_Z   12
loop_
 _symmetry_equiv_pos_site_id
 _symmetry_equiv_pos_as_xyz
  1  'x, y, z'
loop_
 _atom_site_type_symbol
 _atom_site_label
 _atom_site_symmetry_multiplicity
 _atom_site_fract_x
 _atom_site_fract_y
 _atom_site_fract_z
 _atom_site_occupancy
  Mn  Mn0  1  0.10269000  0.76039000  0.18599000  1.0
  Mn  Mn1  1  0.91740000  0.74321000  0.36901000  1.0
  Mn  Mn2  1  0.60269000  0.73961000  0.31401000  1.0
  Mn  Mn3  1  0.41740000  0.75679000  0.13099000  1.0
  Mn  Mn4  1  0.89731000  0.23961000  0.81401000  1.0
  Mn  Mn5  1  0.08260000  0.25679000  0.63099000  1.0
  Mn  Mn6  1  0.39731000  0.26039000  0.68599000  1.0
  Mn  Mn7  1  0.58260000  0.24321000  0.86901000  1.0
  Mn  Mn8  1  0.00000000  0.50000000  0.50000000  1.0
  Mn  Mn9  1  0.50000000  0.00000000  0.00000000  1.0
  Mn  Mn10  1  0.00000000  0.00000000  0.50000000  1.0
  Mn  Mn11  1  0.50000000  0.50000000  0.00000000  1.0
  H  H12  1  0.24730000  0.85520000  0.37140000  1.0
  H  H13  1  0.83890000  0.19120000  0.42930000  1.0
  H  H14  1  0.01300000  0.01690000  0.23320000  1.0
  H  H15  1  0.38460000  0.05140000  0.54380000  1.0
  H  H16  1  0.19660000  0.52300000  0.26410000  1.0
  H  H17  1  0.70590000  0.49800000  0.48500000  1.0
  H  H18  1  0.74730000  0.64480000  0.12860000  1.0
  H  H19  1  0.33890000  0.30880000  0.07070000  1.0
  H  H20  1  0.51300000  0.48310000  0.26680000  1.0
  H  H21  1  0.88460000  0.44860000  0.95620000  1.0
  H  H22  1  0.69660000  0.97700000  0.23590000  1.0
  H  H23  1  0.20590000  0.00200000  0.01500000  1.0
  H  H24  1  0.75270000  0.14480000  0.62860000  1.0
  H  H25  1  0.16110000  0.80880000  0.57070000  1.0
  H  H26  1  0.98700000  0.98310000  0.76680000  1.0
  H  H27  1  0.61540000  0.94860000  0.45620000  1.0
  H  H28  1  0.80340000  0.47700000  0.73590000  1.0
  H  H29  1  0.29410000  0.50200000  0.51500000  1.0
  H  H30  1  0.25270000  0.35520000  0.87140000  1.0
  H  H31  1  0.66110000  0.69120000  0.92930000  1.0
  H  H32  1  0.48700000  0.51690000  0.73320000  1.0
  H  H33  1  0.11540000  0.55140000  0.04380000  1.0
  H  H34  1  0.30340000  0.02300000  0.76410000  1.0
  H  H35  1  0.79410000  0.99800000  0.98500000  1.0
  C  C36  1  0.32150000  0.82940000  0.32944000  1.0
  C  C37  1  0.13130000  0.55240000  0.31473000  1.0
  C  C38  1  0.01330000  0.98008000  0.28962000  1.0
  C  C39  1  0.28950000  0.07350000  0.55150000  1.0
  C  C40  1  0.72020000  0.56570000  0.44537000  1.0
  C  C41  1  0.89990000  0.24216000  0.46728000  1.0
  C  C42  1  0.82150000  0.67060000  0.17056000  1.0
  C  C43  1  0.63130000  0.94760000  0.18527000  1.0
  C  C44  1  0.51330000  0.51992000  0.21038000  1.0
  C  C45  1  0.78950000  0.42650000  0.94850000  1.0
  C  C46  1  0.22020000  0.93430000  0.05463000  1.0
  C  C47  1  0.39990000  0.25784000  0.03272000  1.0
  C  C48  1  0.67850000  0.17060000  0.67056000  1.0
  C  C49  1  0.86870000  0.44760000  0.68527000  1.0
  C  C50  1  0.98670000  0.01992000  0.71038000  1.0
  C  C51  1  0.71050000  0.92650000  0.44850000  1.0
  C  C52  1  0.27980000  0.43430000  0.55463000  1.0
  C  C53  1  0.10010000  0.75784000  0.53272000  1.0
  C  C54  1  0.17850000  0.32940000  0.82944000  1.0
  C  C55  1  0.36870000  0.05240000  0.81473000  1.0
  C  C56  1  0.48670000  0.48008000  0.78962000  1.0
  C  C57  1  0.21050000  0.57350000  0.05150000  1.0
  C  C58  1  0.77980000  0.06570000  0.94537000  1.0
  C  C59  1  0.60010000  0.74216000  0.96728000  1.0
  O  O60  1  0.29583000  0.80660000  0.24818000  1.0
  O  O61  1  0.83909000  0.59870000  0.43906000  1.0
  O  O62  1  0.97161000  0.18624000  0.52102000  1.0
  O  O63  1  0.26108000  0.15360000  0.60717000  1.0
  O  O64  1  0.07801000  0.64874000  0.30339000  1.0
  O  O65  1  0.00284000  0.87254000  0.28166000  1.0
  O  O66  1  0.00070000  0.03714000  0.35912000  1.0
  O  O67  1  0.62407000  0.60713000  0.40734000  1.0
  O  O68  1  0.42893000  0.81504000  0.36733000  1.0
  O  O69  1  0.89537000  0.34637000  0.46262000  1.0
  O  O70  1  0.11130000  0.48822000  0.37675000  1.0
  O  O71  1  0.21121000  0.01833000  0.50420000  1.0
  O  O72  1  0.79583000  0.69340000  0.25182000  1.0
  O  O73  1  0.33909000  0.90130000  0.06094000  1.0
  O  O74  1  0.47161000  0.31376000  0.97898000  1.0
  O  O75  1  0.76108000  0.34640000  0.89283000  1.0
  O  O76  1  0.57801000  0.85126000  0.19661000  1.0
  O  O77  1  0.50284000  0.62746000  0.21834000  1.0
  O  O78  1  0.50070000  0.46286000  0.14088000  1.0
  O  O79  1  0.12407000  0.89287000  0.09266000  1.0
  O  O80  1  0.92893000  0.68496000  0.13267000  1.0
  O  O81  1  0.39537000  0.15363000  0.03738000  1.0
  O  O82  1  0.61130000  0.01178000  0.12325000  1.0
  O  O83  1  0.71121000  0.48167000  0.99580000  1.0
  O  O84  1  0.70417000  0.19340000  0.75182000  1.0
  O  O85  1  0.16091000  0.40130000  0.56094000  1.0
  O  O86  1  0.02839000  0.81376000  0.47898000  1.0
  O  O87  1  0.73892000  0.84640000  0.39283000  1.0
  O  O88  1  0.92199000  0.35126000  0.69661000  1.0
  O  O89  1  0.99716000  0.12746000  0.71834000  1.0
  O  O90  1  0.99930000  0.96286000  0.64088000  1.0
  O  O91  1  0.37593000  0.39287000  0.59266000  1.0
  O  O92  1  0.57107000  0.18496000  0.63267000  1.0
  O  O93  1  0.10463000  0.65363000  0.53738000  1.0
  O  O94  1  0.88870000  0.51178000  0.62325000  1.0
  O  O95  1  0.78879000  0.98167000  0.49580000  1.0
  O  O96  1  0.20417000  0.30660000  0.74818000  1.0
  O  O97  1  0.66091000  0.09870000  0.93906000  1.0
  O  O98  1  0.52839000  0.68624000  0.02102000  1.0
  O  O99  1  0.23892000  0.65360000  0.10717000  1.0
  O  O100  1  0.42199000  0.14874000  0.80339000  1.0
  O  O101  1  0.49716000  0.37254000  0.78166000  1.0
  O  O102  1  0.49930000  0.53714000  0.85912000  1.0
  O  O103  1  0.87593000  0.10713000  0.90734000  1.0
  O  O104  1  0.07107000  0.31504000  0.86733000  1.0
  O  O105  1  0.60463000  0.84637000  0.96262000  1.0
  O  O106  1  0.38870000  0.98822000  0.87675000  1.0
  O  O107  1  0.28879000  0.51833000  0.00420000  1.0
