# generated using pymatgen
data_DyH4(CO2)4
_symmetry_space_group_name_H-M   'P 1'
_cell_length_a   6.68200000
_cell_length_b   18.44600000
_cell_length_c   8.47700000
_cell_angle_alpha   90.00000000
_cell_angle_beta   90.00000000
_cell_angle_gamma   90.00000000
_symmetry_Int_Tables_number   1
_chemical_formula_structural   DyH4(CO2)4
_chemical_formula_sum   'Dy4 H16 C16 O32'
_cell_volume   1044.84257004
_cell_formula_units_Z   4
loop_
 _symmetry_equiv_pos_site_id
 _symmetry_equiv_pos_as_xyz
  1  'x, y, z'
loop_
 _atom_site_type_symbol
 _atom_site_label
 _atom_site_symmetry_multiplicity
 _atom_site_fract_x
 _atom_site_fract_y
 _atom_site_fract_z
 _atom_site_occupancy
  Dy  Dy0  1  0.00000000  0.85736000  0.25000000  1.0
  Dy  Dy1  1  0.50000000  0.35736000  0.25000000  1.0
  Dy  Dy2  1  0.00000000  0.14264000  0.75000000  1.0
  Dy  Dy3  1  0.50000000  0.64264000  0.75000000  1.0
  H  H4  1  0.71260000  0.78270000  0.95820000  1.0
  H  H5  1  0.21260000  0.28270000  0.95820000  1.0
  H  H6  1  0.28740000  0.21730000  0.45820000  1.0
  H  H7  1  0.78740000  0.71730000  0.45820000  1.0
  H  H8  1  0.28740000  0.78270000  0.54180000  1.0
  H  H9  1  0.78740000  0.28270000  0.54180000  1.0
  H  H10  1  0.71260000  0.21730000  0.04180000  1.0
  H  H11  1  0.21260000  0.71730000  0.04180000  1.0
  H  H12  1  0.50000000  0.82480000  0.25000000  1.0
  H  H13  1  0.00000000  0.32480000  0.25000000  1.0
  H  H14  1  0.50000000  0.17520000  0.75000000  1.0
  H  H15  1  0.00000000  0.67520000  0.75000000  1.0
  H  H16  1  0.21310000  0.00000000  0.50000000  1.0
  H  H17  1  0.71310000  0.50000000  0.50000000  1.0
  H  H18  1  0.78690000  0.00000000  0.00000000  1.0
  H  H19  1  0.28690000  0.50000000  0.00000000  1.0
  C  C20  1  0.73400000  0.74400000  0.02640000  1.0
  C  C21  1  0.23400000  0.24400000  0.02640000  1.0
  C  C22  1  0.26600000  0.25600000  0.52640000  1.0
  C  C23  1  0.76600000  0.75600000  0.52640000  1.0
  C  C24  1  0.26600000  0.74400000  0.47360000  1.0
  C  C25  1  0.76600000  0.24400000  0.47360000  1.0
  C  C26  1  0.73400000  0.25600000  0.97360000  1.0
  C  C27  1  0.23400000  0.75600000  0.97360000  1.0
  C  C28  1  0.50000000  0.87520000  0.25000000  1.0
  C  C29  1  0.00000000  0.37520000  0.25000000  1.0
  C  C30  1  0.50000000  0.12480000  0.75000000  1.0
  C  C31  1  0.00000000  0.62480000  0.75000000  1.0
  C  C32  1  0.07390000  0.00000000  0.50000000  1.0
  C  C33  1  0.57390000  0.50000000  0.50000000  1.0
  C  C34  1  0.92610000  0.00000000  0.00000000  1.0
  C  C35  1  0.42610000  0.50000000  0.00000000  1.0
  O  O36  1  0.33580000  0.90537000  0.26900000  1.0
  O  O37  1  0.98640000  0.95020000  0.43170000  1.0
  O  O38  1  0.81930000  0.75750000  0.15260000  1.0
  O  O39  1  0.67420000  0.68314000  0.98220000  1.0
  O  O40  1  0.83580000  0.40537000  0.26900000  1.0
  O  O41  1  0.48640000  0.45020000  0.43170000  1.0
  O  O42  1  0.31930000  0.25750000  0.15260000  1.0
  O  O43  1  0.17420000  0.18314000  0.98220000  1.0
  O  O44  1  0.66420000  0.09463000  0.76900000  1.0
  O  O45  1  0.01360000  0.04980000  0.93170000  1.0
  O  O46  1  0.18070000  0.24250000  0.65260000  1.0
  O  O47  1  0.32580000  0.31686000  0.48220000  1.0
  O  O48  1  0.16420000  0.59463000  0.76900000  1.0
  O  O49  1  0.51360000  0.54980000  0.93170000  1.0
  O  O50  1  0.68070000  0.74250000  0.65260000  1.0
  O  O51  1  0.82580000  0.81686000  0.48220000  1.0
  O  O52  1  0.66420000  0.90537000  0.23100000  1.0
  O  O53  1  0.01360000  0.95020000  0.06830000  1.0
  O  O54  1  0.18070000  0.75750000  0.34740000  1.0
  O  O55  1  0.32580000  0.68314000  0.51780000  1.0
  O  O56  1  0.16420000  0.40537000  0.23100000  1.0
  O  O57  1  0.51360000  0.45020000  0.06830000  1.0
  O  O58  1  0.68070000  0.25750000  0.34740000  1.0
  O  O59  1  0.82580000  0.18314000  0.51780000  1.0
  O  O60  1  0.33580000  0.09463000  0.73100000  1.0
  O  O61  1  0.98640000  0.04980000  0.56830000  1.0
  O  O62  1  0.81930000  0.24250000  0.84740000  1.0
  O  O63  1  0.67420000  0.31686000  0.01780000  1.0
  O  O64  1  0.83580000  0.59463000  0.73100000  1.0
  O  O65  1  0.48640000  0.54980000  0.56830000  1.0
  O  O66  1  0.31930000  0.74250000  0.84740000  1.0
  O  O67  1  0.17420000  0.81686000  0.01780000  1.0
