# generated using pymatgen
data_U5P8H20(C7O8)4
_symmetry_space_group_name_H-M   'P 1'
_cell_length_a   14.38930000
_cell_length_b   14.71470000
_cell_length_c   15.35340000
_cell_angle_alpha   98.30600000
_cell_angle_beta   93.87600000
_cell_angle_gamma   96.29600000
_symmetry_Int_Tables_number   1
_chemical_formula_structural   U5P8H20(C7O8)4
_chemical_formula_sum   'U10 P16 H40 C56 O64'
_cell_volume   3185.81324616
_cell_formula_units_Z   2
loop_
 _symmetry_equiv_pos_site_id
 _symmetry_equiv_pos_as_xyz
  1  'x, y, z'
loop_
 _atom_site_type_symbol
 _atom_site_label
 _atom_site_symmetry_multiplicity
 _atom_site_fract_x
 _atom_site_fract_y
 _atom_site_fract_z
 _atom_site_occupancy
  U  U0  1  0.71786000  0.97781000  0.62443000  1.0
  U  U1  1  0.69991000  0.97125000  0.88365000  1.0
  U  U2  1  0.92651000  0.92539000  0.24699000  1.0
  U  U3  1  0.60350000  0.60731000  0.74385000  1.0
  U  U4  1  0.53466000  0.75860000  0.29560000  1.0
  U  U5  1  0.28214000  0.02219000  0.37557000  1.0
  U  U6  1  0.30009000  0.02875000  0.11635000  1.0
  U  U7  1  0.07349000  0.07461000  0.75301000  1.0
  U  U8  1  0.39650000  0.39269000  0.25615000  1.0
  U  U9  1  0.46534000  0.24140000  0.70440000  1.0
  P  P10  1  0.60680000  0.41150000  0.87420000  1.0
  P  P11  1  0.83780000  0.12724000  0.82960000  1.0
  P  P12  1  0.53680000  0.76810000  0.92640000  1.0
  P  P13  1  0.27600000  0.00530000  0.87743000  1.0
  P  P14  1  0.44010000  0.15973000  0.31756000  1.0
  P  P15  1  0.72782000  0.94406000  0.38256000  1.0
  P  P16  1  0.92290000  0.14030000  0.57830000  1.0
  P  P17  1  0.65290000  0.38100000  0.61820000  1.0
  P  P18  1  0.39320000  0.58850000  0.12580000  1.0
  P  P19  1  0.16220000  0.87276000  0.17040000  1.0
  P  P20  1  0.46320000  0.23190000  0.07360000  1.0
  P  P21  1  0.72400000  0.99470000  0.12257000  1.0
  P  P22  1  0.55990000  0.84027000  0.68244000  1.0
  P  P23  1  0.27218000  0.05594000  0.61744000  1.0
  P  P24  1  0.07710000  0.85970000  0.42170000  1.0
  P  P25  1  0.34710000  0.61900000  0.38180000  1.0
  H  H26  1  0.56910000  0.81840000  0.05560000  1.0
  H  H27  1  0.91270000  0.33230000  0.37470000  1.0
  H  H28  1  0.38060000  0.10890000  0.89610000  1.0
  H  H29  1  0.61660000  0.47980000  0.99720000  1.0
  H  H30  1  0.61650000  0.40970000  0.49970000  1.0
  H  H31  1  0.14810000  0.53420000  0.84680000  1.0
  H  H32  1  0.98270000  0.14990000  0.46470000  1.0
  H  H33  1  0.99630000  0.59270000  0.84100000  1.0
  H  H34  1  0.67740000  0.23090000  0.85390000  1.0
  H  H35  1  0.95220000  0.29260000  0.82600000  1.0
  H  H36  1  0.78720000  0.49880000  0.86780000  1.0
  H  H37  1  0.36040000  0.65040000  0.88270000  1.0
  H  H38  1  0.17460000  0.82680000  0.83970000  1.0
  H  H39  1  0.44610000  0.92180000  0.89440000  1.0
  H  H40  1  0.54690000  0.00890000  0.34670000  1.0
  H  H41  1  0.81430000  0.12560000  0.37920000  1.0
  H  H42  1  0.60900000  0.28140000  0.33520000  1.0
  H  H43  1  0.75110000  0.22250000  0.58780000  1.0
  H  H44  1  0.82560000  0.49490000  0.62050000  1.0
  H  H45  1  0.02320000  0.32060000  0.58790000  1.0
  H  H46  1  0.43090000  0.18160000  0.94440000  1.0
  H  H47  1  0.08730000  0.66770000  0.62530000  1.0
  H  H48  1  0.61940000  0.89110000  0.10390000  1.0
  H  H49  1  0.38340000  0.52020000  0.00280000  1.0
  H  H50  1  0.38350000  0.59030000  0.50030000  1.0
  H  H51  1  0.85190000  0.46580000  0.15320000  1.0
  H  H52  1  0.01730000  0.85010000  0.53530000  1.0
  H  H53  1  0.00370000  0.40730000  0.15900000  1.0
  H  H54  1  0.32260000  0.76910000  0.14610000  1.0
  H  H55  1  0.04780000  0.70740000  0.17400000  1.0
  H  H56  1  0.21280000  0.50120000  0.13220000  1.0
  H  H57  1  0.63960000  0.34960000  0.11730000  1.0
  H  H58  1  0.82540000  0.17320000  0.16030000  1.0
  H  H59  1  0.55390000  0.07820000  0.10560000  1.0
  H  H60  1  0.45310000  0.99110000  0.65330000  1.0
  H  H61  1  0.18570000  0.87440000  0.62080000  1.0
  H  H62  1  0.39100000  0.71860000  0.66480000  1.0
  H  H63  1  0.24890000  0.77750000  0.41220000  1.0
  H  H64  1  0.17440000  0.50510000  0.37950000  1.0
  H  H65  1  0.97680000  0.67940000  0.41210000  1.0
  C  C66  1  0.71750000  0.36890000  0.85910000  1.0
  C  C67  1  0.72840000  0.27460000  0.85070000  1.0
  C  C68  1  0.81780000  0.24690000  0.83740000  1.0
  C  C69  1  0.89380000  0.31170000  0.83570000  1.0
  C  C70  1  0.88420000  0.40570000  0.84830000  1.0
  C  C71  1  0.79440000  0.43620000  0.85990000  1.0
  C  C72  1  0.96930000  0.47120000  0.84850000  1.0
  C  C73  1  0.41750000  0.78400000  0.89580000  1.0
  C  C74  1  0.34680000  0.71050000  0.88090000  1.0
  C  C75  1  0.25620000  0.72820000  0.86330000  1.0
  C  C76  1  0.23560000  0.81660000  0.85580000  1.0
  C  C77  1  0.30630000  0.88900000  0.87250000  1.0
  C  C78  1  0.39780000  0.87330000  0.88850000  1.0
  C  C79  1  0.17720000  0.65280000  0.85570000  1.0
  C  C80  1  0.56190000  0.14640000  0.33430000  1.0
  C  C81  1  0.59110000  0.06050000  0.34900000  1.0
  C  C82  1  0.68620000  0.05340000  0.36710000  1.0
  C  C83  1  0.75060000  0.13040000  0.36950000  1.0
  C  C84  1  0.72210000  0.21410000  0.35780000  1.0
  C  C85  1  0.62770000  0.22390000  0.34140000  1.0
  C  C86  1  0.79340000  0.29800000  0.36320000  1.0
  C  C87  1  0.89200000  0.25470000  0.58780000  1.0
  C  C88  1  0.79810000  0.27220000  0.59360000  1.0
  C  C89  1  0.77400000  0.36140000  0.60780000  1.0
  C  C90  1  0.84170000  0.43500000  0.61310000  1.0
  C  C91  1  0.93590000  0.41960000  0.60740000  1.0
  C  C92  1  0.96090000  0.32990000  0.59340000  1.0
  C  C93  1  0.01180000  0.50010000  0.61700000  1.0
  C  C94  1  0.28250000  0.63110000  0.14090000  1.0
  C  C95  1  0.27160000  0.72540000  0.14930000  1.0
  C  C96  1  0.18220000  0.75310000  0.16260000  1.0
  C  C97  1  0.10620000  0.68830000  0.16430000  1.0
  C  C98  1  0.11580000  0.59430000  0.15170000  1.0
  C  C99  1  0.20560000  0.56380000  0.14010000  1.0
  C  C100  1  0.03070000  0.52880000  0.15150000  1.0
  C  C101  1  0.58250000  0.21600000  0.10420000  1.0
  C  C102  1  0.65320000  0.28950000  0.11910000  1.0
  C  C103  1  0.74380000  0.27180000  0.13670000  1.0
  C  C104  1  0.76440000  0.18340000  0.14420000  1.0
  C  C105  1  0.69370000  0.11100000  0.12750000  1.0
  C  C106  1  0.60220000  0.12670000  0.11150000  1.0
  C  C107  1  0.82280000  0.34720000  0.14430000  1.0
  C  C108  1  0.43810000  0.85360000  0.66570000  1.0
  C  C109  1  0.40890000  0.93950000  0.65100000  1.0
  C  C110  1  0.31380000  0.94660000  0.63290000  1.0
  C  C111  1  0.24940000  0.86960000  0.63050000  1.0
  C  C112  1  0.27790000  0.78590000  0.64220000  1.0
  C  C113  1  0.37230000  0.77610000  0.65860000  1.0
  C  C114  1  0.20660000  0.70200000  0.63680000  1.0
  C  C115  1  0.10800000  0.74530000  0.41220000  1.0
  C  C116  1  0.20190000  0.72780000  0.40640000  1.0
  C  C117  1  0.22600000  0.63860000  0.39220000  1.0
  C  C118  1  0.15830000  0.56500000  0.38690000  1.0
  C  C119  1  0.06410000  0.58040000  0.39260000  1.0
  C  C120  1  0.03910000  0.67010000  0.40660000  1.0
  C  C121  1  0.98820000  0.49990000  0.38300000  1.0
  O  O122  1  0.75830000  0.06560000  0.76790000  1.0
  O  O123  1  0.83810000  0.07830000  0.59480000  1.0
  O  O124  1  0.72120000  0.92830000  0.47730000  1.0
  O  O125  1  0.82490000  0.09610000  0.91930000  1.0
  O  O126  1  0.93270000  0.12220000  0.79900000  1.0
  O  O127  1  0.59840000  0.85330000  0.91290000  1.0
  O  O128  1  0.56020000  0.67680000  0.88330000  1.0
  O  O129  1  0.54200000  0.76870000  0.03030000  1.0
  O  O130  1  0.83030000  0.95450000  0.36350000  1.0
  O  O131  1  0.66770000  0.86750000  0.32150000  1.0
  O  O132  1  0.87860000  0.28330000  0.37100000  1.0
  O  O133  1  0.25140000  0.03780000  0.97100000  1.0
  O  O134  1  0.19660000  0.00420000  0.80920000  1.0
  O  O135  1  0.36600000  0.06530000  0.85600000  1.0
  O  O136  1  0.65300000  0.47940000  0.65790000  1.0
  O  O137  1  0.61110000  0.50230000  0.84080000  1.0
  O  O138  1  0.52870000  0.33910000  0.83690000  1.0
  O  O139  1  0.59790000  0.42590000  0.97620000  1.0
  O  O140  1  0.60910000  0.30760000  0.66700000  1.0
  O  O141  1  0.60440000  0.36380000  0.52340000  1.0
  O  O142  1  0.98520000  0.57910000  0.61390000  1.0
  O  O143  1  0.09540000  0.48530000  0.62080000  1.0
  O  O144  1  0.19680000  0.56980000  0.85110000  1.0
  O  O145  1  0.09410000  0.67270000  0.84340000  1.0
  O  O146  1  0.94580000  0.10960000  0.47960000  1.0
  O  O147  1  0.01010000  0.14180000  0.63660000  1.0
  O  O148  1  0.04390000  0.44780000  0.83500000  1.0
  O  O149  1  0.94780000  0.55710000  0.83820000  1.0
  O  O150  1  0.38610000  0.07410000  0.25890000  1.0
  O  O151  1  0.43410000  0.24640000  0.27890000  1.0
  O  O152  1  0.39830000  0.16100000  0.40650000  1.0
  O  O153  1  0.76900000  0.37580000  0.35980000  1.0
  O  O154  1  0.24170000  0.93440000  0.23210000  1.0
  O  O155  1  0.16190000  0.92170000  0.40520000  1.0
  O  O156  1  0.27880000  0.07170000  0.52270000  1.0
  O  O157  1  0.17510000  0.90390000  0.08070000  1.0
  O  O158  1  0.06730000  0.87780000  0.20100000  1.0
  O  O159  1  0.40160000  0.14670000  0.08710000  1.0
  O  O160  1  0.43980000  0.32320000  0.11670000  1.0
  O  O161  1  0.45800000  0.23130000  0.96970000  1.0
  O  O162  1  0.16970000  0.04550000  0.63650000  1.0
  O  O163  1  0.33230000  0.13250000  0.67850000  1.0
  O  O164  1  0.12140000  0.71670000  0.62900000  1.0
  O  O165  1  0.74860000  0.96220000  0.02900000  1.0
  O  O166  1  0.80340000  0.99580000  0.19080000  1.0
  O  O167  1  0.63400000  0.93470000  0.14400000  1.0
  O  O168  1  0.34700000  0.52060000  0.34210000  1.0
  O  O169  1  0.38890000  0.49770000  0.15920000  1.0
  O  O170  1  0.47130000  0.66090000  0.16310000  1.0
  O  O171  1  0.40210000  0.57410000  0.02380000  1.0
  O  O172  1  0.39090000  0.69240000  0.33300000  1.0
  O  O173  1  0.39560000  0.63620000  0.47660000  1.0
  O  O174  1  0.01480000  0.42090000  0.38610000  1.0
  O  O175  1  0.90460000  0.51470000  0.37920000  1.0
  O  O176  1  0.80320000  0.43020000  0.14890000  1.0
  O  O177  1  0.90590000  0.32730000  0.15660000  1.0
  O  O178  1  0.05420000  0.89040000  0.52040000  1.0
  O  O179  1  0.98990000  0.85820000  0.36340000  1.0
  O  O180  1  0.95610000  0.55220000  0.16500000  1.0
  O  O181  1  0.05220000  0.44290000  0.16180000  1.0
  O  O182  1  0.61390000  0.92590000  0.74110000  1.0
  O  O183  1  0.56590000  0.75360000  0.72110000  1.0
  O  O184  1  0.60170000  0.83900000  0.59350000  1.0
  O  O185  1  0.23100000  0.62420000  0.64020000  1.0
