# generated using pymatgen
data_FeH8Au2(C8N5)2
_symmetry_space_group_name_H-M   'P 1'
_cell_length_a   11.91830000
_cell_length_b   16.99830000
_cell_length_c   15.49860000
_cell_angle_alpha   90.00000000
_cell_angle_beta   90.00000000
_cell_angle_gamma   90.00000000
_symmetry_Int_Tables_number   1
_chemical_formula_structural   FeH8Au2(C8N5)2
_chemical_formula_sum   'Fe4 H32 Au8 C64 N40'
_cell_volume   3139.87437562
_cell_formula_units_Z   4
loop_
 _symmetry_equiv_pos_site_id
 _symmetry_equiv_pos_as_xyz
  1  'x, y, z'
loop_
 _atom_site_type_symbol
 _atom_site_label
 _atom_site_symmetry_multiplicity
 _atom_site_fract_x
 _atom_site_fract_y
 _atom_site_fract_z
 _atom_site_occupancy
  Fe  Fe0  1  0.50000000  0.25000000  0.38594000  1.0
  Fe  Fe1  1  0.00000000  0.75000000  0.38594000  1.0
  Fe  Fe2  1  0.50000000  0.75000000  0.61406000  1.0
  Fe  Fe3  1  0.00000000  0.25000000  0.61406000  1.0
  H  H4  1  0.66050000  0.25000000  0.22960000  1.0
  H  H5  1  0.66710000  0.25000000  0.08110000  1.0
  H  H6  1  0.66580000  0.25000000  0.69090000  1.0
  H  H7  1  0.65950000  0.25000000  0.54130000  1.0
  H  H8  1  0.16050000  0.75000000  0.22960000  1.0
  H  H9  1  0.16710000  0.75000000  0.08110000  1.0
  H  H10  1  0.16580000  0.75000000  0.69090000  1.0
  H  H11  1  0.15950000  0.75000000  0.54130000  1.0
  H  H12  1  0.33950000  0.25000000  0.22960000  1.0
  H  H13  1  0.33290000  0.25000000  0.08110000  1.0
  H  H14  1  0.33420000  0.25000000  0.69090000  1.0
  H  H15  1  0.34050000  0.25000000  0.54130000  1.0
  H  H16  1  0.83950000  0.75000000  0.22960000  1.0
  H  H17  1  0.83290000  0.75000000  0.08110000  1.0
  H  H18  1  0.83420000  0.75000000  0.69090000  1.0
  H  H19  1  0.84050000  0.75000000  0.54130000  1.0
  H  H20  1  0.33950000  0.75000000  0.77040000  1.0
  H  H21  1  0.33290000  0.75000000  0.91890000  1.0
  H  H22  1  0.33420000  0.75000000  0.30910000  1.0
  H  H23  1  0.34050000  0.75000000  0.45870000  1.0
  H  H24  1  0.83950000  0.25000000  0.77040000  1.0
  H  H25  1  0.83290000  0.25000000  0.91890000  1.0
  H  H26  1  0.83420000  0.25000000  0.30910000  1.0
  H  H27  1  0.84050000  0.25000000  0.45870000  1.0
  H  H28  1  0.66050000  0.75000000  0.77040000  1.0
  H  H29  1  0.66710000  0.75000000  0.91890000  1.0
  H  H30  1  0.66580000  0.75000000  0.30910000  1.0
  H  H31  1  0.65950000  0.75000000  0.45870000  1.0
  H  H32  1  0.16050000  0.25000000  0.77040000  1.0
  H  H33  1  0.16710000  0.25000000  0.91890000  1.0
  H  H34  1  0.16580000  0.25000000  0.30910000  1.0
  H  H35  1  0.15950000  0.25000000  0.45870000  1.0
  Au  Au36  1  0.75000000  0.00000000  0.39434000  1.0
  Au  Au37  1  0.25000000  0.50000000  0.39434000  1.0
  Au  Au38  1  0.75000000  0.50000000  0.39434000  1.0
  Au  Au39  1  0.25000000  0.00000000  0.39434000  1.0
  Au  Au40  1  0.25000000  0.50000000  0.60566000  1.0
  Au  Au41  1  0.75000000  0.00000000  0.60566000  1.0
  Au  Au42  1  0.25000000  0.00000000  0.60566000  1.0
  Au  Au43  1  0.75000000  0.50000000  0.60566000  1.0
  C  C44  1  0.67140000  0.10280000  0.39000000  1.0
  C  C45  1  0.17140000  0.60280000  0.39000000  1.0
  C  C46  1  0.32860000  0.39720000  0.39000000  1.0
  C  C47  1  0.82860000  0.89720000  0.39000000  1.0
  C  C48  1  0.67140000  0.39720000  0.39000000  1.0
  C  C49  1  0.17140000  0.89720000  0.39000000  1.0
  C  C50  1  0.32860000  0.10280000  0.39000000  1.0
  C  C51  1  0.82860000  0.60280000  0.39000000  1.0
  C  C52  1  0.50000000  0.25000000  0.06380000  1.0
  C  C53  1  0.50000000  0.25000000  0.96890000  1.0
  C  C54  1  0.50000000  0.25000000  0.80510000  1.0
  C  C55  1  0.50000000  0.25000000  0.70760000  1.0
  C  C56  1  0.00000000  0.75000000  0.06380000  1.0
  C  C57  1  0.00000000  0.75000000  0.96890000  1.0
  C  C58  1  0.00000000  0.75000000  0.80510000  1.0
  C  C59  1  0.00000000  0.75000000  0.70760000  1.0
  C  C60  1  0.59340000  0.25000000  0.19900000  1.0
  C  C61  1  0.59840000  0.25000000  0.10950000  1.0
  C  C62  1  0.59700000  0.25000000  0.66250000  1.0
  C  C63  1  0.59200000  0.25000000  0.57140000  1.0
  C  C64  1  0.09340000  0.75000000  0.19900000  1.0
  C  C65  1  0.09840000  0.75000000  0.10950000  1.0
  C  C66  1  0.09700000  0.75000000  0.66250000  1.0
  C  C67  1  0.09200000  0.75000000  0.57140000  1.0
  C  C68  1  0.40660000  0.25000000  0.19900000  1.0
  C  C69  1  0.40160000  0.25000000  0.10950000  1.0
  C  C70  1  0.40300000  0.25000000  0.66250000  1.0
  C  C71  1  0.40800000  0.25000000  0.57140000  1.0
  C  C72  1  0.90660000  0.75000000  0.19900000  1.0
  C  C73  1  0.90160000  0.75000000  0.10950000  1.0
  C  C74  1  0.90300000  0.75000000  0.66250000  1.0
  C  C75  1  0.90800000  0.75000000  0.57140000  1.0
  C  C76  1  0.32860000  0.60280000  0.61000000  1.0
  C  C77  1  0.82860000  0.10280000  0.61000000  1.0
  C  C78  1  0.67140000  0.89720000  0.61000000  1.0
  C  C79  1  0.17140000  0.39720000  0.61000000  1.0
  C  C80  1  0.32860000  0.89720000  0.61000000  1.0
  C  C81  1  0.82860000  0.39720000  0.61000000  1.0
  C  C82  1  0.67140000  0.60280000  0.61000000  1.0
  C  C83  1  0.17140000  0.10280000  0.61000000  1.0
  C  C84  1  0.50000000  0.75000000  0.93620000  1.0
  C  C85  1  0.50000000  0.75000000  0.03110000  1.0
  C  C86  1  0.50000000  0.75000000  0.19490000  1.0
  C  C87  1  0.50000000  0.75000000  0.29240000  1.0
  C  C88  1  0.00000000  0.25000000  0.93620000  1.0
  C  C89  1  0.00000000  0.25000000  0.03110000  1.0
  C  C90  1  0.00000000  0.25000000  0.19490000  1.0
  C  C91  1  0.00000000  0.25000000  0.29240000  1.0
  C  C92  1  0.40660000  0.75000000  0.80100000  1.0
  C  C93  1  0.40160000  0.75000000  0.89050000  1.0
  C  C94  1  0.40300000  0.75000000  0.33750000  1.0
  C  C95  1  0.40800000  0.75000000  0.42860000  1.0
  C  C96  1  0.90660000  0.25000000  0.80100000  1.0
  C  C97  1  0.90160000  0.25000000  0.89050000  1.0
  C  C98  1  0.90300000  0.25000000  0.33750000  1.0
  C  C99  1  0.90800000  0.25000000  0.42860000  1.0
  C  C100  1  0.59340000  0.75000000  0.80100000  1.0
  C  C101  1  0.59840000  0.75000000  0.89050000  1.0
  C  C102  1  0.59700000  0.75000000  0.33750000  1.0
  C  C103  1  0.59200000  0.75000000  0.42860000  1.0
  C  C104  1  0.09340000  0.25000000  0.80100000  1.0
  C  C105  1  0.09840000  0.25000000  0.89050000  1.0
  C  C106  1  0.09700000  0.25000000  0.33750000  1.0
  C  C107  1  0.09200000  0.25000000  0.42860000  1.0
  N  N108  1  0.62450000  0.15990000  0.38670000  1.0
  N  N109  1  0.12450000  0.65990000  0.38670000  1.0
  N  N110  1  0.37550000  0.34010000  0.38670000  1.0
  N  N111  1  0.87550000  0.84010000  0.38670000  1.0
  N  N112  1  0.62450000  0.34010000  0.38670000  1.0
  N  N113  1  0.12450000  0.84010000  0.38670000  1.0
  N  N114  1  0.37550000  0.15990000  0.38670000  1.0
  N  N115  1  0.87550000  0.65990000  0.38670000  1.0
  N  N116  1  0.50000000  0.25000000  0.24240000  1.0
  N  N117  1  0.50000000  0.25000000  0.52690000  1.0
  N  N118  1  0.00000000  0.75000000  0.24240000  1.0
  N  N119  1  0.00000000  0.75000000  0.52690000  1.0
  N  N120  1  0.60020000  0.25000000  0.92730000  1.0
  N  N121  1  0.59820000  0.25000000  0.84090000  1.0
  N  N122  1  0.10020000  0.75000000  0.92730000  1.0
  N  N123  1  0.09820000  0.75000000  0.84090000  1.0
  N  N124  1  0.39980000  0.25000000  0.92730000  1.0
  N  N125  1  0.40180000  0.25000000  0.84090000  1.0
  N  N126  1  0.89980000  0.75000000  0.92730000  1.0
  N  N127  1  0.90180000  0.75000000  0.84090000  1.0
  N  N128  1  0.37550000  0.65990000  0.61330000  1.0
  N  N129  1  0.87550000  0.15990000  0.61330000  1.0
  N  N130  1  0.62450000  0.84010000  0.61330000  1.0
  N  N131  1  0.12450000  0.34010000  0.61330000  1.0
  N  N132  1  0.37550000  0.84010000  0.61330000  1.0
  N  N133  1  0.87550000  0.34010000  0.61330000  1.0
  N  N134  1  0.62450000  0.65990000  0.61330000  1.0
  N  N135  1  0.12450000  0.15990000  0.61330000  1.0
  N  N136  1  0.50000000  0.75000000  0.75760000  1.0
  N  N137  1  0.50000000  0.75000000  0.47310000  1.0
  N  N138  1  0.00000000  0.25000000  0.75760000  1.0
  N  N139  1  0.00000000  0.25000000  0.47310000  1.0
  N  N140  1  0.39980000  0.75000000  0.07270000  1.0
  N  N141  1  0.40180000  0.75000000  0.15910000  1.0
  N  N142  1  0.89980000  0.25000000  0.07270000  1.0
  N  N143  1  0.90180000  0.25000000  0.15910000  1.0
  N  N144  1  0.60020000  0.75000000  0.07270000  1.0
  N  N145  1  0.59820000  0.75000000  0.15910000  1.0
  N  N146  1  0.10020000  0.25000000  0.07270000  1.0
  N  N147  1  0.09820000  0.25000000  0.15910000  1.0
