# generated using pymatgen
data_AgH8(CN)2
_symmetry_space_group_name_H-M   'P 1'
_cell_length_a   20.79600000
_cell_length_b   19.48500000
_cell_length_c   5.97200000
_cell_angle_alpha   90.00000000
_cell_angle_beta   114.09600000
_cell_angle_gamma   90.00000000
_symmetry_Int_Tables_number   1
_chemical_formula_structural   AgH8(CN)2
_chemical_formula_sum   'Ag16 H128 C32 N32'
_cell_volume   2209.04962053
_cell_formula_units_Z   16
loop_
 _symmetry_equiv_pos_site_id
 _symmetry_equiv_pos_as_xyz
  1  'x, y, z'
loop_
 _atom_site_type_symbol
 _atom_site_label
 _atom_site_symmetry_multiplicity
 _atom_site_fract_x
 _atom_site_fract_y
 _atom_site_fract_z
 _atom_site_occupancy
  Ag  Ag0  1  0.50000000  0.00000000  0.00000000  1.0
  Ag  Ag1  1  0.00000000  0.50000000  0.00000000  1.0
  Ag  Ag2  1  0.50000000  0.00000000  0.50000000  1.0
  Ag  Ag3  1  0.00000000  0.50000000  0.50000000  1.0
  Ag  Ag4  1  0.75000000  0.25000000  0.00000000  1.0
  Ag  Ag5  1  0.25000000  0.25000000  0.50000000  1.0
  Ag  Ag6  1  0.25000000  0.75000000  0.00000000  1.0
  Ag  Ag7  1  0.75000000  0.75000000  0.50000000  1.0
  Ag  Ag8  1  0.75000000  0.25000000  0.50000000  1.0
  Ag  Ag9  1  0.25000000  0.25000000  0.00000000  1.0
  Ag  Ag10  1  0.25000000  0.75000000  0.50000000  1.0
  Ag  Ag11  1  0.75000000  0.75000000  0.00000000  1.0
  Ag  Ag12  1  0.00000000  0.00000000  0.50000000  1.0
  Ag  Ag13  1  0.50000000  0.50000000  0.50000000  1.0
  Ag  Ag14  1  0.00000000  0.00000000  0.00000000  1.0
  Ag  Ag15  1  0.50000000  0.50000000  0.00000000  1.0
  H  H16  1  0.62810000  0.05130000  0.31070000  1.0
  H  H17  1  0.64190000  0.01080000  0.12620000  1.0
  H  H18  1  0.61870000  0.22990000  0.88750000  1.0
  H  H19  1  0.63780000  0.18620000  0.72450000  1.0
  H  H20  1  0.87670000  0.22480000  0.62800000  1.0
  H  H21  1  0.85010000  0.17660000  0.75650000  1.0
  H  H22  1  0.89720000  0.07190000  0.23080000  1.0
  H  H23  1  0.87150000  0.02640000  0.36920000  1.0
  H  H24  1  0.56190000  0.12830000  0.01570000  1.0
  H  H25  1  0.57890000  0.08590000  0.82300000  1.0
  H  H26  1  0.67930000  0.15990000  0.21750000  1.0
  H  H27  1  0.69990000  0.11320000  0.04340000  1.0
  H  H28  1  0.82690000  0.16240000  0.27270000  1.0
  H  H29  1  0.80050000  0.10940000  0.41770000  1.0
  H  H30  1  0.94480000  0.14580000  0.55590000  1.0
  H  H31  1  0.91960000  0.09580000  0.71210000  1.0
  H  H32  1  0.12810000  0.55130000  0.31070000  1.0
  H  H33  1  0.14190000  0.51080000  0.12620000  1.0
  H  H34  1  0.11870000  0.72990000  0.88750000  1.0
  H  H35  1  0.13780000  0.68620000  0.72450000  1.0
  H  H36  1  0.37670000  0.72480000  0.62800000  1.0
  H  H37  1  0.35010000  0.67660000  0.75650000  1.0
  H  H38  1  0.39720000  0.57190000  0.23080000  1.0
  H  H39  1  0.37150000  0.52640000  0.36920000  1.0
  H  H40  1  0.06190000  0.62830000  0.01570000  1.0
  H  H41  1  0.07890000  0.58590000  0.82300000  1.0
  H  H42  1  0.17930000  0.65990000  0.21750000  1.0
  H  H43  1  0.19990000  0.61320000  0.04340000  1.0
  H  H44  1  0.32690000  0.66240000  0.27270000  1.0
  H  H45  1  0.30050000  0.60940000  0.41770000  1.0
  H  H46  1  0.44480000  0.64580000  0.55590000  1.0
  H  H47  1  0.41960000  0.59580000  0.71210000  1.0
  H  H48  1  0.37190000  0.05130000  0.18930000  1.0
  H  H49  1  0.35810000  0.01080000  0.37380000  1.0
  H  H50  1  0.38130000  0.22990000  0.61250000  1.0
  H  H51  1  0.36220000  0.18620000  0.77550000  1.0
  H  H52  1  0.12330000  0.22480000  0.87200000  1.0
  H  H53  1  0.14990000  0.17660000  0.74350000  1.0
  H  H54  1  0.10280000  0.07190000  0.26920000  1.0
  H  H55  1  0.12850000  0.02640000  0.13080000  1.0
  H  H56  1  0.43810000  0.12830000  0.48430000  1.0
  H  H57  1  0.42110000  0.08590000  0.67700000  1.0
  H  H58  1  0.32070000  0.15990000  0.28250000  1.0
  H  H59  1  0.30010000  0.11320000  0.45660000  1.0
  H  H60  1  0.17310000  0.16240000  0.22730000  1.0
  H  H61  1  0.19950000  0.10940000  0.08230000  1.0
  H  H62  1  0.05520000  0.14580000  0.94410000  1.0
  H  H63  1  0.08040000  0.09580000  0.78790000  1.0
  H  H64  1  0.87190000  0.55130000  0.18930000  1.0
  H  H65  1  0.85810000  0.51080000  0.37380000  1.0
  H  H66  1  0.88130000  0.72990000  0.61250000  1.0
  H  H67  1  0.86220000  0.68620000  0.77550000  1.0
  H  H68  1  0.62330000  0.72480000  0.87200000  1.0
  H  H69  1  0.64990000  0.67660000  0.74350000  1.0
  H  H70  1  0.60280000  0.57190000  0.26920000  1.0
  H  H71  1  0.62850000  0.52640000  0.13080000  1.0
  H  H72  1  0.93810000  0.62830000  0.48430000  1.0
  H  H73  1  0.92110000  0.58590000  0.67700000  1.0
  H  H74  1  0.82070000  0.65990000  0.28250000  1.0
  H  H75  1  0.80010000  0.61320000  0.45660000  1.0
  H  H76  1  0.67310000  0.66240000  0.22730000  1.0
  H  H77  1  0.69950000  0.60940000  0.08230000  1.0
  H  H78  1  0.55520000  0.64580000  0.94410000  1.0
  H  H79  1  0.58040000  0.59580000  0.78790000  1.0
  H  H80  1  0.37190000  0.94870000  0.68930000  1.0
  H  H81  1  0.35810000  0.98920000  0.87380000  1.0
  H  H82  1  0.38130000  0.77010000  0.11250000  1.0
  H  H83  1  0.36220000  0.81380000  0.27550000  1.0
  H  H84  1  0.12330000  0.77520000  0.37200000  1.0
  H  H85  1  0.14990000  0.82340000  0.24350000  1.0
  H  H86  1  0.10280000  0.92810000  0.76920000  1.0
  H  H87  1  0.12850000  0.97360000  0.63080000  1.0
  H  H88  1  0.43810000  0.87170000  0.98430000  1.0
  H  H89  1  0.42110000  0.91410000  0.17700000  1.0
  H  H90  1  0.32070000  0.84010000  0.78250000  1.0
  H  H91  1  0.30010000  0.88680000  0.95660000  1.0
  H  H92  1  0.17310000  0.83760000  0.72730000  1.0
  H  H93  1  0.19950000  0.89060000  0.58230000  1.0
  H  H94  1  0.05520000  0.85420000  0.44410000  1.0
  H  H95  1  0.08040000  0.90420000  0.28790000  1.0
  H  H96  1  0.87190000  0.44870000  0.68930000  1.0
  H  H97  1  0.85810000  0.48920000  0.87380000  1.0
  H  H98  1  0.88130000  0.27010000  0.11250000  1.0
  H  H99  1  0.86220000  0.31380000  0.27550000  1.0
  H  H100  1  0.62330000  0.27520000  0.37200000  1.0
  H  H101  1  0.64990000  0.32340000  0.24350000  1.0
  H  H102  1  0.60280000  0.42810000  0.76920000  1.0
  H  H103  1  0.62850000  0.47360000  0.63080000  1.0
  H  H104  1  0.93810000  0.37170000  0.98430000  1.0
  H  H105  1  0.92110000  0.41410000  0.17700000  1.0
  H  H106  1  0.82070000  0.34010000  0.78250000  1.0
  H  H107  1  0.80010000  0.38680000  0.95660000  1.0
  H  H108  1  0.67310000  0.33760000  0.72730000  1.0
  H  H109  1  0.69950000  0.39060000  0.58230000  1.0
  H  H110  1  0.55520000  0.35420000  0.44410000  1.0
  H  H111  1  0.58040000  0.40420000  0.28790000  1.0
  H  H112  1  0.62810000  0.94870000  0.81070000  1.0
  H  H113  1  0.64190000  0.98920000  0.62620000  1.0
  H  H114  1  0.61870000  0.77010000  0.38750000  1.0
  H  H115  1  0.63780000  0.81380000  0.22450000  1.0
  H  H116  1  0.87670000  0.77520000  0.12800000  1.0
  H  H117  1  0.85010000  0.82340000  0.25650000  1.0
  H  H118  1  0.89720000  0.92810000  0.73080000  1.0
  H  H119  1  0.87150000  0.97360000  0.86920000  1.0
  H  H120  1  0.56190000  0.87170000  0.51570000  1.0
  H  H121  1  0.57890000  0.91410000  0.32300000  1.0
  H  H122  1  0.67930000  0.84010000  0.71750000  1.0
  H  H123  1  0.69990000  0.88680000  0.54340000  1.0
  H  H124  1  0.82690000  0.83760000  0.77270000  1.0
  H  H125  1  0.80050000  0.89060000  0.91770000  1.0
  H  H126  1  0.94480000  0.85420000  0.05590000  1.0
  H  H127  1  0.91960000  0.90420000  0.21210000  1.0
  H  H128  1  0.12810000  0.44870000  0.81070000  1.0
  H  H129  1  0.14190000  0.48920000  0.62620000  1.0
  H  H130  1  0.11870000  0.27010000  0.38750000  1.0
  H  H131  1  0.13780000  0.31380000  0.22450000  1.0
  H  H132  1  0.37670000  0.27520000  0.12800000  1.0
  H  H133  1  0.35010000  0.32340000  0.25650000  1.0
  H  H134  1  0.39720000  0.42810000  0.73080000  1.0
  H  H135  1  0.37150000  0.47360000  0.86920000  1.0
  H  H136  1  0.06190000  0.37170000  0.51570000  1.0
  H  H137  1  0.07890000  0.41410000  0.32300000  1.0
  H  H138  1  0.17930000  0.34010000  0.71750000  1.0
  H  H139  1  0.19990000  0.38680000  0.54340000  1.0
  H  H140  1  0.32690000  0.33760000  0.77270000  1.0
  H  H141  1  0.30050000  0.39060000  0.91770000  1.0
  H  H142  1  0.44480000  0.35420000  0.05590000  1.0
  H  H143  1  0.41960000  0.40420000  0.21210000  1.0
  C  C144  1  0.59740000  0.10030000  0.99300000  1.0
  C  C145  1  0.66320000  0.14250000  0.05100000  1.0
  C  C146  1  0.83640000  0.14300000  0.43300000  1.0
  C  C147  1  0.90940000  0.11240000  0.54800000  1.0
  C  C148  1  0.09740000  0.60030000  0.99300000  1.0
  C  C149  1  0.16320000  0.64250000  0.05100000  1.0
  C  C150  1  0.33640000  0.64300000  0.43300000  1.0
  C  C151  1  0.40940000  0.61240000  0.54800000  1.0
  C  C152  1  0.40260000  0.10030000  0.50700000  1.0
  C  C153  1  0.33680000  0.14250000  0.44900000  1.0
  C  C154  1  0.16360000  0.14300000  0.06700000  1.0
  C  C155  1  0.09060000  0.11240000  0.95200000  1.0
  C  C156  1  0.90260000  0.60030000  0.50700000  1.0
  C  C157  1  0.83680000  0.64250000  0.44900000  1.0
  C  C158  1  0.66360000  0.64300000  0.06700000  1.0
  C  C159  1  0.59060000  0.61240000  0.95200000  1.0
  C  C160  1  0.40260000  0.89970000  0.00700000  1.0
  C  C161  1  0.33680000  0.85750000  0.94900000  1.0
  C  C162  1  0.16360000  0.85700000  0.56700000  1.0
  C  C163  1  0.09060000  0.88760000  0.45200000  1.0
  C  C164  1  0.90260000  0.39970000  0.00700000  1.0
  C  C165  1  0.83680000  0.35750000  0.94900000  1.0
  C  C166  1  0.66360000  0.35700000  0.56700000  1.0
  C  C167  1  0.59060000  0.38760000  0.45200000  1.0
  C  C168  1  0.59740000  0.89970000  0.49300000  1.0
  C  C169  1  0.66320000  0.85750000  0.55100000  1.0
  C  C170  1  0.83640000  0.85700000  0.93300000  1.0
  C  C171  1  0.90940000  0.88760000  0.04800000  1.0
  C  C172  1  0.09740000  0.39970000  0.49300000  1.0
  C  C173  1  0.16320000  0.35750000  0.55100000  1.0
  C  C174  1  0.33640000  0.35700000  0.93300000  1.0
  C  C175  1  0.40940000  0.38760000  0.04800000  1.0
  N  N176  1  0.61200000  0.04020000  0.15100000  1.0
  N  N177  1  0.65200000  0.20110000  0.88000000  1.0
  N  N178  1  0.84100000  0.19610000  0.61000000  1.0
  N  N179  1  0.90680000  0.05500000  0.38100000  1.0
  N  N180  1  0.11200000  0.54020000  0.15100000  1.0
  N  N181  1  0.15200000  0.70110000  0.88000000  1.0
  N  N182  1  0.34100000  0.69610000  0.61000000  1.0
  N  N183  1  0.40680000  0.55500000  0.38100000  1.0
  N  N184  1  0.38800000  0.04020000  0.34900000  1.0
  N  N185  1  0.34800000  0.20110000  0.62000000  1.0
  N  N186  1  0.15900000  0.19610000  0.89000000  1.0
  N  N187  1  0.09320000  0.05500000  0.11900000  1.0
  N  N188  1  0.88800000  0.54020000  0.34900000  1.0
  N  N189  1  0.84800000  0.70110000  0.62000000  1.0
  N  N190  1  0.65900000  0.69610000  0.89000000  1.0
  N  N191  1  0.59320000  0.55500000  0.11900000  1.0
  N  N192  1  0.38800000  0.95980000  0.84900000  1.0
  N  N193  1  0.34800000  0.79890000  0.12000000  1.0
  N  N194  1  0.15900000  0.80390000  0.39000000  1.0
  N  N195  1  0.09320000  0.94500000  0.61900000  1.0
  N  N196  1  0.88800000  0.45980000  0.84900000  1.0
  N  N197  1  0.84800000  0.29890000  0.12000000  1.0
  N  N198  1  0.65900000  0.30390000  0.39000000  1.0
  N  N199  1  0.59320000  0.44500000  0.61900000  1.0
  N  N200  1  0.61200000  0.95980000  0.65100000  1.0
  N  N201  1  0.65200000  0.79890000  0.38000000  1.0
  N  N202  1  0.84100000  0.80390000  0.11000000  1.0
  N  N203  1  0.90680000  0.94500000  0.88100000  1.0
  N  N204  1  0.11200000  0.45980000  0.65100000  1.0
  N  N205  1  0.15200000  0.29890000  0.38000000  1.0
  N  N206  1  0.34100000  0.30390000  0.11000000  1.0
  N  N207  1  0.40680000  0.44500000  0.88100000  1.0
