# generated using pymatgen
data_AgH8(CN)2
_symmetry_space_group_name_H-M   'P 1'
_cell_length_a   10.59600000
_cell_length_b   10.29500000
_cell_length_c   6.14100000
_cell_angle_alpha   90.00000000
_cell_angle_beta   114.67000000
_cell_angle_gamma   90.00000000
_symmetry_Int_Tables_number   1
_chemical_formula_structural   AgH8(CN)2
_chemical_formula_sum   'Ag4 H32 C8 N8'
_cell_volume   608.75249908
_cell_formula_units_Z   4
loop_
 _symmetry_equiv_pos_site_id
 _symmetry_equiv_pos_as_xyz
  1  'x, y, z'
loop_
 _atom_site_type_symbol
 _atom_site_label
 _atom_site_symmetry_multiplicity
 _atom_site_fract_x
 _atom_site_fract_y
 _atom_site_fract_z
 _atom_site_occupancy
  Ag  Ag0  1  0.50000000  0.00000000  0.50000000  1.0
  Ag  Ag1  1  0.00000000  0.50000000  0.50000000  1.0
  Ag  Ag2  1  0.50000000  0.00000000  0.00000000  1.0
  Ag  Ag3  1  0.00000000  0.50000000  0.00000000  1.0
  H  H4  1  0.39310000  0.27040000  0.55940000  1.0
  H  H5  1  0.33770000  0.17620000  0.70170000  1.0
  H  H6  1  0.28380000  0.14300000  0.22750000  1.0
  H  H7  1  0.23340000  0.05530000  0.36050000  1.0
  H  H8  1  0.89310000  0.77040000  0.55940000  1.0
  H  H9  1  0.83770000  0.67620000  0.70170000  1.0
  H  H10  1  0.78380000  0.64300000  0.22750000  1.0
  H  H11  1  0.73340000  0.55530000  0.36050000  1.0
  H  H12  1  0.60690000  0.27040000  0.94060000  1.0
  H  H13  1  0.66230000  0.17620000  0.79830000  1.0
  H  H14  1  0.71620000  0.14300000  0.27250000  1.0
  H  H15  1  0.76660000  0.05530000  0.13950000  1.0
  H  H16  1  0.10690000  0.77040000  0.94060000  1.0
  H  H17  1  0.16230000  0.67620000  0.79830000  1.0
  H  H18  1  0.21620000  0.64300000  0.27250000  1.0
  H  H19  1  0.26660000  0.55530000  0.13950000  1.0
  H  H20  1  0.60690000  0.72960000  0.44060000  1.0
  H  H21  1  0.66230000  0.82380000  0.29830000  1.0
  H  H22  1  0.71620000  0.85700000  0.77250000  1.0
  H  H23  1  0.76660000  0.94470000  0.63950000  1.0
  H  H24  1  0.10690000  0.22960000  0.44060000  1.0
  H  H25  1  0.16230000  0.32380000  0.29830000  1.0
  H  H26  1  0.21620000  0.35700000  0.77250000  1.0
  H  H27  1  0.26660000  0.44470000  0.63950000  1.0
  H  H28  1  0.39310000  0.72960000  0.05940000  1.0
  H  H29  1  0.33770000  0.82380000  0.20170000  1.0
  H  H30  1  0.28380000  0.85700000  0.72750000  1.0
  H  H31  1  0.23340000  0.94470000  0.86050000  1.0
  H  H32  1  0.89310000  0.22960000  0.05940000  1.0
  H  H33  1  0.83770000  0.32380000  0.20170000  1.0
  H  H34  1  0.78380000  0.35700000  0.72750000  1.0
  H  H35  1  0.73340000  0.44470000  0.86050000  1.0
  C  C36  1  0.31800000  0.21290000  0.54500000  1.0
  C  C37  1  0.81800000  0.71290000  0.54500000  1.0
  C  C38  1  0.68200000  0.21290000  0.95500000  1.0
  C  C39  1  0.18200000  0.71290000  0.95500000  1.0
  C  C40  1  0.68200000  0.78710000  0.45500000  1.0
  C  C41  1  0.18200000  0.28710000  0.45500000  1.0
  C  C42  1  0.31800000  0.78710000  0.04500000  1.0
  C  C43  1  0.81800000  0.28710000  0.04500000  1.0
  N  N44  1  0.30330000  0.10880000  0.37300000  1.0
  N  N45  1  0.80330000  0.60880000  0.37300000  1.0
  N  N46  1  0.69670000  0.10880000  0.12700000  1.0
  N  N47  1  0.19670000  0.60880000  0.12700000  1.0
  N  N48  1  0.69670000  0.89120000  0.62700000  1.0
  N  N49  1  0.19670000  0.39120000  0.62700000  1.0
  N  N50  1  0.30330000  0.89120000  0.87300000  1.0
  N  N51  1  0.80330000  0.39120000  0.87300000  1.0
