# generated using pymatgen
data_Zr3H35(C9O2)8
_symmetry_space_group_name_H-M   'P 1'
_cell_length_a   22.07100000
_cell_length_b   22.07100000
_cell_length_c   22.07100000
_cell_angle_alpha   90.00000000
_cell_angle_beta   90.00000000
_cell_angle_gamma   90.00000000
_symmetry_Int_Tables_number   1
_chemical_formula_structural   Zr3H35(C9O2)8
_chemical_formula_sum   'Zr6 H70 C144 O32'
_cell_volume   10751.42506391
_cell_formula_units_Z   2
loop_
 _symmetry_equiv_pos_site_id
 _symmetry_equiv_pos_as_xyz
  1  'x, y, z'
loop_
 _atom_site_type_symbol
 _atom_site_label
 _atom_site_symmetry_multiplicity
 _atom_site_fract_x
 _atom_site_fract_y
 _atom_site_fract_z
 _atom_site_occupancy
  Zr  Zr0  1  0.00023000  0.00023000  0.89296000  1.0
  Zr  Zr1  1  0.10732000  0.00022000  0.00027000  1.0
  Zr  Zr2  1  0.89302000  0.00036000  0.99977000  1.0
  Zr  Zr3  1  0.00029000  0.10739000  0.00004000  1.0
  Zr  Zr4  1  0.99996000  0.89317000  0.00000000  1.0
  Zr  Zr5  1  0.00009000  0.00018000  0.10708000  1.0
  H  H6  1  0.49805000  0.00029000  0.28723000  1.0
  H  H7  1  0.40145000  0.01133000  0.45479000  1.0
  H  H8  1  0.59741000  0.99034000  0.45270000  1.0
  H  H9  1  0.59887000  0.01145000  0.54528000  1.0
  H  H10  1  0.50228000  0.00040000  0.71285000  1.0
  H  H11  1  0.40294000  0.99025000  0.54739000  1.0
  H  H12  1  0.28580000  0.50007000  0.00014000  1.0
  H  H13  1  0.45303000  0.40298000  0.00999000  1.0
  H  H14  1  0.45191000  0.59908000  0.99059000  1.0
  H  H15  1  0.54480000  0.59988000  0.00988000  1.0
  H  H16  1  0.71180000  0.50223000  0.99990000  1.0
  H  H17  1  0.54582000  0.40369000  0.99046000  1.0
  H  H18  1  0.00032000  0.28474000  0.50005000  1.0
  H  H19  1  0.01068000  0.45144000  0.40207000  1.0
  H  H20  1  0.98976000  0.45145000  0.59797000  1.0
  H  H21  1  0.01084000  0.54405000  0.59801000  1.0
  H  H22  1  0.00006000  0.71037000  0.49999000  1.0
  H  H23  1  0.98950000  0.54402000  0.40200000  1.0
  H  H24  1  0.08097000  0.08084000  0.91947000  1.0
  H  H25  1  0.91944000  0.91966000  0.91916000  1.0
  H  H26  1  0.91952000  0.08091000  0.08059000  1.0
  H  H27  1  0.08065000  0.91947000  0.08077000  1.0
  H  H28  1  0.22267000  0.99542000  0.33519000  1.0
  H  H29  1  0.13622000  0.99410000  0.26403000  1.0
  H  H30  1  0.26110000  0.01869000  0.11518000  1.0
  H  H31  1  0.34563000  0.01982000  0.18581000  1.0
  H  H32  1  0.65558000  0.97194000  0.18412000  1.0
  H  H33  1  0.74082000  0.97265000  0.11432000  1.0
  H  H34  1  0.86254000  0.01311000  0.26235000  1.0
  H  H35  1  0.77543000  0.01205000  0.33267000  1.0
  H  H36  1  0.65484000  0.02140000  0.81413000  1.0
  H  H37  1  0.73941000  0.02035000  0.88475000  1.0
  H  H38  1  0.86402000  0.99340000  0.73609000  1.0
  H  H39  1  0.77755000  0.99465000  0.66496000  1.0
  H  H40  1  0.34469000  0.97146000  0.81587000  1.0
  H  H41  1  0.25944000  0.97211000  0.88567000  1.0
  H  H42  1  0.13782000  0.01327000  0.73774000  1.0
  H  H43  1  0.22494000  0.01227000  0.66743000  1.0
  H  H44  1  0.18460000  0.34613000  0.02156000  1.0
  H  H45  1  0.11463000  0.26105000  0.02083000  1.0
  H  H46  1  0.26393000  0.13763000  0.99205000  1.0
  H  H47  1  0.33444000  0.22466000  0.99302000  1.0
  H  H48  1  0.33350000  0.77537000  0.00952000  1.0
  H  H49  1  0.26320000  0.86254000  0.01042000  1.0
  H  H50  1  0.11424000  0.73998000  0.97652000  1.0
  H  H51  1  0.18402000  0.65473000  0.97591000  1.0
  H  H52  1  0.81424000  0.65460000  0.01757000  1.0
  H  H53  1  0.88498000  0.73907000  0.01662000  1.0
  H  H54  1  0.73604000  0.86434000  0.99472000  1.0
  H  H55  1  0.66480000  0.77797000  0.99583000  1.0
  H  H56  1  0.66628000  0.22416000  0.00730000  1.0
  H  H57  1  0.73693000  0.13731000  0.00830000  1.0
  H  H58  1  0.88594000  0.26093000  0.97868000  1.0
  H  H59  1  0.81580000  0.34587000  0.97794000  1.0
  H  H60  1  0.02665000  0.18410000  0.34518000  1.0
  H  H61  1  0.02588000  0.11445000  0.25984000  1.0
  H  H62  1  0.98867000  0.26316000  0.13793000  1.0
  H  H63  1  0.98977000  0.33335000  0.22520000  1.0
  H  H64  1  0.97371000  0.18419000  0.65494000  1.0
  H  H65  1  0.97446000  0.11456000  0.74029000  1.0
  H  H66  1  0.01209000  0.26320000  0.86214000  1.0
  H  H67  1  0.01101000  0.33339000  0.77487000  1.0
  H  H68  1  0.02177000  0.81446000  0.65499000  1.0
  H  H69  1  0.02073000  0.88525000  0.73942000  1.0
  H  H70  1  0.99280000  0.73687000  0.86421000  1.0
  H  H71  1  0.99406000  0.66560000  0.77790000  1.0
  H  H72  1  0.00642000  0.66560000  0.22213000  1.0
  H  H73  1  0.00764000  0.73686000  0.13582000  1.0
  H  H74  1  0.97886000  0.88515000  0.26051000  1.0
  H  H75  1  0.97787000  0.81437000  0.34495000  1.0
  C  C76  1  0.49826000  0.00048000  0.33640000  1.0
  C  C77  1  0.44337000  0.00434000  0.36827000  1.0
  C  C78  1  0.44438000  0.00585000  0.43214000  1.0
  C  C79  1  0.49963000  0.00089000  0.46537000  1.0
  C  C80  1  0.55396000  0.99572000  0.43108000  1.0
  C  C81  1  0.55358000  0.99681000  0.36741000  1.0
  C  C82  1  0.50071000  0.00090000  0.53471000  1.0
  C  C83  1  0.55595000  0.00593000  0.56794000  1.0
  C  C84  1  0.55695000  0.00445000  0.63182000  1.0
  C  C85  1  0.50207000  0.00056000  0.66368000  1.0
  C  C86  1  0.44675000  0.99682000  0.63267000  1.0
  C  C87  1  0.44638000  0.99569000  0.56900000  1.0
  C  C88  1  0.33499000  0.50032000  0.00019000  1.0
  C  C89  1  0.36671000  0.44528000  0.00366000  1.0
  C  C90  1  0.43058000  0.44605000  0.00493000  1.0
  C  C91  1  0.46409000  0.50115000  0.00029000  1.0
  C  C92  1  0.42996000  0.55574000  0.99561000  1.0
  C  C93  1  0.36614000  0.55569000  0.99678000  1.0
  C  C94  1  0.53356000  0.50170000  0.00022000  1.0
  C  C95  1  0.56717000  0.55676000  0.00482000  1.0
  C  C96  1  0.63107000  0.55737000  0.00350000  1.0
  C  C97  1  0.66263000  0.50227000  0.99999000  1.0
  C  C98  1  0.63137000  0.44705000  0.99658000  1.0
  C  C99  1  0.56763000  0.44708000  0.99548000  1.0
  C  C100  1  0.00029000  0.33393000  0.50004000  1.0
  C  C101  1  0.00399000  0.36539000  0.44488000  1.0
  C  C102  1  0.00527000  0.42919000  0.44523000  1.0
  C  C103  1  0.00022000  0.46294000  0.50002000  1.0
  C  C104  1  0.99520000  0.42920000  0.55482000  1.0
  C  C105  1  0.99656000  0.36541000  0.55519000  1.0
  C  C106  1  0.00018000  0.53228000  0.50001000  1.0
  C  C107  1  0.00532000  0.56607000  0.55479000  1.0
  C  C108  1  0.00398000  0.62982000  0.55505000  1.0
  C  C109  1  0.00009000  0.66123000  0.50000000  1.0
  C  C110  1  0.99624000  0.62981000  0.44495000  1.0
  C  C111  1  0.99499000  0.56605000  0.44523000  1.0
  C  C112  1  0.86005000  0.00389000  0.86201000  1.0
  C  C113  1  0.14040000  0.99630000  0.86274000  1.0
  C  C114  1  0.99669000  0.13780000  0.85974000  1.0
  C  C115  1  0.00372000  0.86254000  0.85994000  1.0
  C  C116  1  0.14029000  0.00353000  0.13802000  1.0
  C  C117  1  0.85993000  0.99648000  0.13731000  1.0
  C  C118  1  0.13796000  0.14064000  0.00355000  1.0
  C  C119  1  0.13759000  0.85986000  0.99660000  1.0
  C  C120  1  0.86214000  0.86012000  0.00308000  1.0
  C  C121  1  0.86267000  0.14065000  0.99646000  1.0
  C  C122  1  0.00385000  0.13774000  0.14035000  1.0
  C  C123  1  0.99632000  0.86249000  0.14005000  1.0
  C  C124  1  0.29074000  0.00768000  0.26576000  1.0
  C  C125  1  0.23104000  0.00070000  0.28713000  1.0
  C  C126  1  0.18161000  0.99998000  0.24638000  1.0
  C  C127  1  0.19109000  0.00597000  0.18344000  1.0
  C  C128  1  0.25128000  0.01354000  0.16296000  1.0
  C  C129  1  0.30013000  0.01435000  0.20344000  1.0
  C  C130  1  0.34322000  0.00701000  0.30618000  1.0
  C  C131  1  0.38936000  0.00612000  0.33659000  1.0
  C  C132  1  0.70899000  0.99205000  0.26346000  1.0
  C  C133  1  0.70056000  0.98075000  0.20172000  1.0
  C  C134  1  0.74973000  0.98138000  0.16177000  1.0
  C  C135  1  0.80913000  0.99342000  0.18233000  1.0
  C  C136  1  0.81772000  0.00369000  0.24478000  1.0
  C  C137  1  0.76796000  0.00319000  0.28499000  1.0
  C  C138  1  0.65624000  0.99332000  0.30315000  1.0
  C  C139  1  0.61018000  0.99459000  0.33340000  1.0
  C  C140  1  0.70960000  0.00807000  0.73429000  1.0
  C  C141  1  0.70030000  0.01544000  0.79655000  1.0
  C  C142  1  0.74915000  0.01467000  0.83701000  1.0
  C  C143  1  0.80927000  0.00644000  0.81659000  1.0
  C  C144  1  0.81869000  0.99981000  0.75370000  1.0
  C  C145  1  0.76924000  0.00048000  0.71296000  1.0
  C  C146  1  0.65710000  0.00729000  0.69390000  1.0
  C  C147  1  0.61096000  0.00631000  0.66349000  1.0
  C  C148  1  0.29134000  0.99192000  0.73659000  1.0
  C  C149  1  0.29973000  0.98040000  0.79830000  1.0
  C  C150  1  0.25055000  0.98100000  0.83824000  1.0
  C  C151  1  0.19119000  0.99322000  0.81771000  1.0
  C  C152  1  0.18262000  0.00370000  0.75528000  1.0
  C  C153  1  0.23239000  0.00323000  0.71508000  1.0
  C  C154  1  0.34409000  0.99325000  0.69692000  1.0
  C  C155  1  0.39015000  0.99455000  0.66667000  1.0
  C  C156  1  0.26474000  0.29208000  0.00728000  1.0
  C  C157  1  0.20248000  0.30084000  0.01525000  1.0
  C  C158  1  0.16239000  0.25166000  0.01467000  1.0
  C  C159  1  0.18315000  0.19170000  0.00602000  1.0
  C  C160  1  0.24605000  0.18281000  0.99881000  1.0
  C  C161  1  0.28643000  0.23259000  0.99930000  1.0
  C  C162  1  0.30476000  0.34493000  0.00639000  1.0
  C  C163  1  0.33496000  0.39124000  0.00540000  1.0
  C  C164  1  0.26391000  0.70843000  0.99276000  1.0
  C  C165  1  0.28561000  0.76769000  0.00209000  1.0
  C  C166  1  0.24538000  0.81752000  0.00253000  1.0
  C  C167  1  0.18265000  0.80884000  0.99393000  1.0
  C  C168  1  0.16188000  0.74912000  0.98383000  1.0
  C  C169  1  0.20185000  0.69988000  0.98330000  1.0
  C  C170  1  0.30374000  0.65557000  0.99384000  1.0
  C  C171  1  0.33399000  0.60938000  0.99494000  1.0
  C  C172  1  0.73423000  0.70967000  0.00674000  1.0
  C  C173  1  0.79662000  0.70017000  0.01271000  1.0
  C  C174  1  0.83716000  0.74899000  0.01203000  1.0
  C  C175  1  0.81670000  0.80929000  0.00529000  1.0
  C  C176  1  0.75371000  0.81888000  0.99995000  1.0
  C  C177  1  0.71290000  0.76948000  0.00056000  1.0
  C  C178  1  0.69367000  0.65726000  0.00608000  1.0
  C  C179  1  0.66306000  0.61123000  0.00520000  1.0
  C  C180  1  0.73587000  0.29159000  0.99263000  1.0
  C  C181  1  0.71426000  0.23215000  0.00084000  1.0
  C  C182  1  0.75470000  0.18250000  0.00134000  1.0
  C  C183  1  0.81753000  0.19157000  0.99393000  1.0
  C  C184  1  0.83822000  0.25150000  0.98502000  1.0
  C  C185  1  0.79805000  0.30055000  0.98442000  1.0
  C  C186  1  0.69578000  0.34422000  0.99358000  1.0
  C  C187  1  0.66533000  0.39025000  0.99462000  1.0
  C  C188  1  0.00818000  0.26385000  0.29180000  1.0
  C  C189  1  0.01853000  0.20190000  0.30015000  1.0
  C  C190  1  0.01787000  0.16202000  0.25088000  1.0
  C  C191  1  0.00676000  0.18276000  0.19134000  1.0
  C  C192  1  0.99736000  0.24539000  0.18282000  1.0
  C  C193  1  0.99790000  0.28555000  0.23270000  1.0
  C  C194  1  0.00707000  0.30351000  0.34474000  1.0
  C  C195  1  0.00593000  0.33356000  0.39104000  1.0
  C  C196  1  0.99239000  0.26391000  0.70830000  1.0
  C  C197  1  0.98193000  0.20199000  0.69996000  1.0
  C  C198  1  0.98257000  0.16211000  0.74924000  1.0
  C  C199  1  0.99379000  0.18283000  0.80877000  1.0
  C  C200  1  0.00332000  0.24544000  0.81727000  1.0
  C  C201  1  0.00279000  0.28560000  0.76738000  1.0
  C  C202  1  0.99351000  0.30356000  0.65535000  1.0
  C  C203  1  0.99464000  0.33359000  0.60904000  1.0
  C  C204  1  0.00795000  0.73483000  0.70995000  1.0
  C  C205  1  0.01560000  0.79701000  0.70046000  1.0
  C  C206  1  0.01483000  0.83754000  0.74921000  1.0
  C  C207  1  0.00632000  0.81718000  0.80929000  1.0
  C  C208  1  0.99943000  0.75437000  0.81886000  1.0
  C  C209  1  0.00011000  0.71358000  0.76955000  1.0
  C  C210  1  0.00711000  0.69437000  0.65768000  1.0
  C  C211  1  0.00607000  0.66371000  0.61183000  1.0
  C  C212  1  0.99211000  0.73479000  0.29004000  1.0
  C  C213  1  0.00017000  0.71355000  0.23046000  1.0
  C  C214  1  0.00081000  0.75434000  0.18114000  1.0
  C  C215  1  0.99369000  0.81712000  0.19069000  1.0
  C  C216  1  0.98495000  0.83746000  0.25074000  1.0
  C  C217  1  0.98421000  0.79694000  0.29949000  1.0
  C  C218  1  0.99302000  0.69434000  0.34231000  1.0
  C  C219  1  0.99410000  0.66368000  0.38817000  1.0
  O  O220  1  0.84350000  0.00275000  0.91838000  1.0
  O  O221  1  0.15686000  0.99763000  0.91910000  1.0
  O  O222  1  0.99798000  0.08141000  0.84334000  1.0
  O  O223  1  0.00258000  0.91891000  0.84340000  1.0
  O  O224  1  0.00223000  0.84399000  0.91618000  1.0
  O  O225  1  0.99817000  0.15648000  0.91598000  1.0
  O  O226  1  0.08421000  0.99794000  0.84401000  1.0
  O  O227  1  0.91637000  0.00242000  0.84356000  1.0
  O  O228  1  0.05509000  0.94532000  0.94523000  1.0
  O  O229  1  0.94531000  0.05531000  0.94498000  1.0
  O  O230  1  0.05508000  0.05500000  0.94533000  1.0
  O  O231  1  0.94529000  0.94548000  0.94509000  1.0
  O  O232  1  0.15684000  0.00239000  0.08164000  1.0
  O  O233  1  0.84347000  0.99785000  0.08095000  1.0
  O  O234  1  0.08155000  0.15705000  0.00229000  1.0
  O  O235  1  0.08117000  0.84351000  0.99771000  1.0
  O  O236  1  0.91854000  0.84362000  0.00206000  1.0
  O  O237  1  0.91907000  0.15705000  0.99775000  1.0
  O  O238  1  0.00246000  0.08134000  0.15674000  1.0
  O  O239  1  0.99763000  0.91886000  0.15661000  1.0
  O  O240  1  0.00243000  0.15644000  0.08412000  1.0
  O  O241  1  0.99769000  0.84397000  0.08380000  1.0
  O  O242  1  0.15654000  0.08432000  0.00229000  1.0
  O  O243  1  0.84399000  0.08441000  0.99774000  1.0
  O  O244  1  0.84367000  0.91644000  0.00174000  1.0
  O  O245  1  0.15632000  0.91610000  0.99815000  1.0
  O  O246  1  0.08397000  0.00219000  0.15646000  1.0
  O  O247  1  0.91611000  0.99802000  0.15604000  1.0
  O  O248  1  0.94503000  0.94536000  0.05485000  1.0
  O  O249  1  0.05515000  0.05522000  0.05511000  1.0
  O  O250  1  0.94537000  0.05505000  0.05471000  1.0
  O  O251  1  0.05486000  0.94536000  0.05487000  1.0
