# generated using pymatgen
data_GdHC5(NO2)2
_symmetry_space_group_name_H-M   'P 1'
_cell_length_a   16.14020000
_cell_length_b   16.36390000
_cell_length_c   16.36390000
_cell_angle_alpha   75.92390000
_cell_angle_beta   60.45120000
_cell_angle_gamma   60.45120000
_symmetry_Int_Tables_number   1
_chemical_formula_structural   GdHC5(NO2)2
_chemical_formula_sum   'Gd16 H16 C80 N32 O64'
_cell_volume   3270.82362032
_cell_formula_units_Z   16
loop_
 _symmetry_equiv_pos_site_id
 _symmetry_equiv_pos_as_xyz
  1  'x, y, z'
loop_
 _atom_site_type_symbol
 _atom_site_label
 _atom_site_symmetry_multiplicity
 _atom_site_fract_x
 _atom_site_fract_y
 _atom_site_fract_z
 _atom_site_occupancy
  Gd  Gd0  1  0.29276000  0.46991000  0.62207000  1.0
  Gd  Gd1  1  0.35184000  0.02150000  0.61480000  1.0
  Gd  Gd2  1  0.88474000  0.03009000  0.87793000  1.0
  Gd  Gd3  1  0.48814000  0.47850000  0.88520000  1.0
  Gd  Gd4  1  0.91483000  0.37793000  0.96991000  1.0
  Gd  Gd5  1  0.96664000  0.38520000  0.52150000  1.0
  Gd  Gd6  1  0.76267000  0.12207000  0.53009000  1.0
  Gd  Gd7  1  0.37334000  0.11480000  0.97850000  1.0
  Gd  Gd8  1  0.70724000  0.53009000  0.37793000  1.0
  Gd  Gd9  1  0.64816000  0.97850000  0.38520000  1.0
  Gd  Gd10  1  0.11526000  0.96991000  0.12207000  1.0
  Gd  Gd11  1  0.51186000  0.52150000  0.11480000  1.0
  Gd  Gd12  1  0.08517000  0.62207000  0.03009000  1.0
  Gd  Gd13  1  0.03336000  0.61480000  0.47850000  1.0
  Gd  Gd14  1  0.23733000  0.87793000  0.46991000  1.0
  Gd  Gd15  1  0.62666000  0.88520000  0.02150000  1.0
  H  H16  1  0.41000000  0.22800000  0.60400000  1.0
  H  H17  1  0.44500000  0.26000000  0.74200000  1.0
  H  H18  1  0.74200000  0.27200000  0.89600000  1.0
  H  H19  1  0.94700000  0.24000000  0.75800000  1.0
  H  H20  1  0.01400000  0.39600000  0.72800000  1.0
  H  H21  1  0.18700000  0.25800000  0.76000000  1.0
  H  H22  1  0.63800000  0.10400000  0.77200000  1.0
  H  H23  1  0.70500000  0.24200000  0.74000000  1.0
  H  H24  1  0.59000000  0.77200000  0.39600000  1.0
  H  H25  1  0.55500000  0.74000000  0.25800000  1.0
  H  H26  1  0.25800000  0.72800000  0.10400000  1.0
  H  H27  1  0.05300000  0.76000000  0.24200000  1.0
  H  H28  1  0.98600000  0.60400000  0.27200000  1.0
  H  H29  1  0.81300000  0.74200000  0.24000000  1.0
  H  H30  1  0.36200000  0.89600000  0.22800000  1.0
  H  H31  1  0.29500000  0.75800000  0.26000000  1.0
  C  C32  1  0.15050000  0.43060000  0.54700000  1.0
  C  C33  1  0.22780000  0.33750000  0.55830000  1.0
  C  C34  1  0.24970000  0.24520000  0.54920000  1.0
  C  C35  1  0.19650000  0.20460000  0.53100000  1.0
  C  C36  1  0.36050000  0.24090000  0.58790000  1.0
  C  C37  1  0.11070000  0.45010000  0.82410000  1.0
  C  C38  1  0.20340000  0.37120000  0.83100000  1.0
  C  C39  1  0.21540000  0.29930000  0.89770000  1.0
  C  C40  1  0.14310000  0.27830000  0.98770000  1.0
  C  C41  1  0.36960000  0.27870000  0.78570000  1.0
  C  C42  1  0.62810000  0.06940000  0.95300000  1.0
  C  C43  1  0.62360000  0.16250000  0.94170000  1.0
  C  C44  1  0.54410000  0.25480000  0.95080000  1.0
  C  C45  1  0.43210000  0.29540000  0.96900000  1.0
  C  C46  1  0.68930000  0.25910000  0.91210000  1.0
  C  C47  1  0.88490000  0.04990000  0.67590000  1.0
  C  C48  1  0.90560000  0.12880000  0.66900000  1.0
  C  C49  1  0.91240000  0.20070000  0.60230000  1.0
  C  C50  1  0.90910000  0.22170000  0.51230000  1.0
  C  C51  1  0.93400000  0.22130000  0.71430000  1.0
  C  C52  1  0.69750000  0.45300000  0.93060000  1.0
  C  C53  1  0.78610000  0.44170000  0.83750000  1.0
  C  C54  1  0.79890000  0.45080000  0.74520000  1.0
  C  C55  1  0.72750000  0.46900000  0.70460000  1.0
  C  C56  1  0.94840000  0.41210000  0.74090000  1.0
  C  C57  1  0.93480000  0.17590000  0.95010000  1.0
  C  C58  1  0.03440000  0.16900000  0.87120000  1.0
  C  C59  1  0.11310000  0.10230000  0.79930000  1.0
  C  C60  1  0.13080000  0.01230000  0.77830000  1.0
  C  C61  1  0.15530000  0.21430000  0.77870000  1.0
  C  C62  1  0.58110000  0.04700000  0.56940000  1.0
  C  C63  1  0.56530000  0.05830000  0.66250000  1.0
  C  C64  1  0.49490000  0.04920000  0.75480000  1.0
  C  C65  1  0.40110000  0.03100000  0.79540000  1.0
  C  C66  1  0.60140000  0.08790000  0.75910000  1.0
  C  C67  1  0.56080000  0.32410000  0.54990000  1.0
  C  C68  1  0.57460000  0.33100000  0.62880000  1.0
  C  C69  1  0.51470000  0.39770000  0.70070000  1.0
  C  C70  1  0.42140000  0.48770000  0.72170000  1.0
  C  C71  1  0.64830000  0.28570000  0.72130000  1.0
  C  C72  1  0.84950000  0.56940000  0.45300000  1.0
  C  C73  1  0.77220000  0.66250000  0.44170000  1.0
  C  C74  1  0.75030000  0.75480000  0.45080000  1.0
  C  C75  1  0.80350000  0.79540000  0.46900000  1.0
  C  C76  1  0.63950000  0.75910000  0.41210000  1.0
  C  C77  1  0.88930000  0.54990000  0.17590000  1.0
  C  C78  1  0.79660000  0.62880000  0.16900000  1.0
  C  C79  1  0.78460000  0.70070000  0.10230000  1.0
  C  C80  1  0.85690000  0.72170000  0.01230000  1.0
  C  C81  1  0.63040000  0.72130000  0.21430000  1.0
  C  C82  1  0.37190000  0.93060000  0.04700000  1.0
  C  C83  1  0.37640000  0.83750000  0.05830000  1.0
  C  C84  1  0.45590000  0.74520000  0.04920000  1.0
  C  C85  1  0.56790000  0.70460000  0.03100000  1.0
  C  C86  1  0.31070000  0.74090000  0.08790000  1.0
  C  C87  1  0.11510000  0.95010000  0.32410000  1.0
  C  C88  1  0.09440000  0.87120000  0.33100000  1.0
  C  C89  1  0.08760000  0.79930000  0.39770000  1.0
  C  C90  1  0.09090000  0.77830000  0.48770000  1.0
  C  C91  1  0.06600000  0.77870000  0.28570000  1.0
  C  C92  1  0.30250000  0.54700000  0.06940000  1.0
  C  C93  1  0.21390000  0.55830000  0.16250000  1.0
  C  C94  1  0.20110000  0.54920000  0.25480000  1.0
  C  C95  1  0.27250000  0.53100000  0.29540000  1.0
  C  C96  1  0.05160000  0.58790000  0.25910000  1.0
  C  C97  1  0.06520000  0.82410000  0.04990000  1.0
  C  C98  1  0.96560000  0.83100000  0.12880000  1.0
  C  C99  1  0.88690000  0.89770000  0.20070000  1.0
  C  C100  1  0.86920000  0.98770000  0.22170000  1.0
  C  C101  1  0.84470000  0.78570000  0.22130000  1.0
  C  C102  1  0.41890000  0.95300000  0.43060000  1.0
  C  C103  1  0.43470000  0.94170000  0.33750000  1.0
  C  C104  1  0.50510000  0.95080000  0.24520000  1.0
  C  C105  1  0.59890000  0.96900000  0.20460000  1.0
  C  C106  1  0.39860000  0.91210000  0.24090000  1.0
  C  C107  1  0.43920000  0.67590000  0.45010000  1.0
  C  C108  1  0.42540000  0.66900000  0.37120000  1.0
  C  C109  1  0.48530000  0.60230000  0.29930000  1.0
  C  C110  1  0.57860000  0.51230000  0.27830000  1.0
  C  C111  1  0.35170000  0.71430000  0.27870000  1.0
  N  N112  1  0.29900000  0.33210000  0.58550000  1.0
  N  N113  1  0.33390000  0.18410000  0.56850000  1.0
  N  N114  1  0.30270000  0.35760000  0.76000000  1.0
  N  N115  1  0.32300000  0.24120000  0.86620000  1.0
  N  N116  1  0.71660000  0.16790000  0.91450000  1.0
  N  N117  1  0.58650000  0.31590000  0.93150000  1.0
  N  N118  1  0.92030000  0.14240000  0.74000000  1.0
  N  N119  1  0.93040000  0.25880000  0.63380000  1.0
  N  N120  1  0.88450000  0.41450000  0.83210000  1.0
  N  N121  1  0.90240000  0.43150000  0.68410000  1.0
  N  N122  1  0.06270000  0.24000000  0.85760000  1.0
  N  N123  1  0.18920000  0.13380000  0.74120000  1.0
  N  N124  1  0.63110000  0.08550000  0.66790000  1.0
  N  N125  1  0.51800000  0.06850000  0.81590000  1.0
  N  N126  1  0.66030000  0.26000000  0.64240000  1.0
  N  N127  1  0.56420000  0.36620000  0.75880000  1.0
  N  N128  1  0.70100000  0.66790000  0.41450000  1.0
  N  N129  1  0.66610000  0.81590000  0.43150000  1.0
  N  N130  1  0.69730000  0.64240000  0.24000000  1.0
  N  N131  1  0.67700000  0.75880000  0.13380000  1.0
  N  N132  1  0.28340000  0.83210000  0.08550000  1.0
  N  N133  1  0.41350000  0.68410000  0.06850000  1.0
  N  N134  1  0.07970000  0.85760000  0.26000000  1.0
  N  N135  1  0.06960000  0.74120000  0.36620000  1.0
  N  N136  1  0.11550000  0.58550000  0.16790000  1.0
  N  N137  1  0.09760000  0.56850000  0.31590000  1.0
  N  N138  1  0.93730000  0.76000000  0.14240000  1.0
  N  N139  1  0.81080000  0.86620000  0.25880000  1.0
  N  N140  1  0.36890000  0.91450000  0.33210000  1.0
  N  N141  1  0.48200000  0.93150000  0.18410000  1.0
  N  N142  1  0.33970000  0.74000000  0.35760000  1.0
  N  N143  1  0.43580000  0.63380000  0.24120000  1.0
  O  O144  1  0.14990000  0.50040000  0.57100000  1.0
  O  O145  1  0.08790000  0.44520000  0.51360000  1.0
  O  O146  1  0.12780000  0.25360000  0.50320000  1.0
  O  O147  1  0.22880000  0.11680000  0.54420000  1.0
  O  O148  1  0.02010000  0.45490000  0.87330000  1.0
  O  O149  1  0.12880000  0.51360000  0.76380000  1.0
  O  O150  1  0.04350000  0.32330000  0.02150000  1.0
  O  O151  1  0.18680000  0.21060000  0.03480000  1.0
  O  O152  1  0.72130000  0.99960000  0.92900000  1.0
  O  O153  1  0.54670000  0.05480000  0.98640000  1.0
  O  O154  1  0.38460000  0.24640000  0.99680000  1.0
  O  O155  1  0.38980000  0.38320000  0.95580000  1.0
  O  O156  1  0.84830000  0.04510000  0.62670000  1.0
  O  O157  1  0.90620000  0.98640000  0.73620000  1.0
  O  O158  1  0.88830000  0.17670000  0.47850000  1.0
  O  O159  1  0.93220000  0.28940000  0.46520000  1.0
  O  O160  1  0.72090000  0.42900000  0.00040000  1.0
  O  O161  1  0.60150000  0.48640000  0.94520000  1.0
  O  O162  1  0.63100000  0.49680000  0.75360000  1.0
  O  O163  1  0.77300000  0.45580000  0.61680000  1.0
  O  O164  1  0.89340000  0.12670000  0.95490000  1.0
  O  O165  1  0.89260000  0.23620000  0.01360000  1.0
  O  O166  1  0.06500000  0.97850000  0.82330000  1.0
  O  O167  1  0.22160000  0.96520000  0.71060000  1.0
  O  O168  1  0.65030000  0.07100000  0.49960000  1.0
  O  O169  1  0.53310000  0.01360000  0.55480000  1.0
  O  O170  1  0.38140000  0.00320000  0.74640000  1.0
  O  O171  1  0.34560000  0.04420000  0.88320000  1.0
  O  O172  1  0.47500000  0.37330000  0.54510000  1.0
  O  O173  1  0.64240000  0.26380000  0.48640000  1.0
  O  O174  1  0.36680000  0.52150000  0.67670000  1.0
  O  O175  1  0.39740000  0.53480000  0.78940000  1.0
  O  O176  1  0.85010000  0.49960000  0.42900000  1.0
  O  O177  1  0.91210000  0.55480000  0.48640000  1.0
  O  O178  1  0.87220000  0.74640000  0.49680000  1.0
  O  O179  1  0.77120000  0.88320000  0.45580000  1.0
  O  O180  1  0.97990000  0.54510000  0.12670000  1.0
  O  O181  1  0.87120000  0.48640000  0.23620000  1.0
  O  O182  1  0.95650000  0.67670000  0.97850000  1.0
  O  O183  1  0.81320000  0.78940000  0.96520000  1.0
  O  O184  1  0.27870000  0.00040000  0.07100000  1.0
  O  O185  1  0.45330000  0.94520000  0.01360000  1.0
  O  O186  1  0.61540000  0.75360000  0.00320000  1.0
  O  O187  1  0.61020000  0.61680000  0.04420000  1.0
  O  O188  1  0.15170000  0.95490000  0.37330000  1.0
  O  O189  1  0.09380000  0.01360000  0.26380000  1.0
  O  O190  1  0.11170000  0.82330000  0.52150000  1.0
  O  O191  1  0.06780000  0.71060000  0.53480000  1.0
  O  O192  1  0.27910000  0.57100000  0.99960000  1.0
  O  O193  1  0.39850000  0.51360000  0.05480000  1.0
  O  O194  1  0.36900000  0.50320000  0.24640000  1.0
  O  O195  1  0.22700000  0.54420000  0.38320000  1.0
  O  O196  1  0.10660000  0.87330000  0.04510000  1.0
  O  O197  1  0.10740000  0.76380000  0.98640000  1.0
  O  O198  1  0.93500000  0.02150000  0.17670000  1.0
  O  O199  1  0.77840000  0.03480000  0.28940000  1.0
  O  O200  1  0.34970000  0.92900000  0.50040000  1.0
  O  O201  1  0.46690000  0.98640000  0.44520000  1.0
  O  O202  1  0.61860000  0.99680000  0.25360000  1.0
  O  O203  1  0.65440000  0.95580000  0.11680000  1.0
  O  O204  1  0.52500000  0.62670000  0.45490000  1.0
  O  O205  1  0.35760000  0.73620000  0.51360000  1.0
  O  O206  1  0.63320000  0.47850000  0.32330000  1.0
  O  O207  1  0.60260000  0.46520000  0.21060000  1.0
