# generated using pymatgen
data_Ce2Mn2P2H20W15C25N5O49
_symmetry_space_group_name_H-M   'P 1'
_cell_length_a   15.36900000
_cell_length_b   15.40300000
_cell_length_c   20.10400000
_cell_angle_alpha   84.83500000
_cell_angle_beta   89.82800000
_cell_angle_gamma   74.46000000
_symmetry_Int_Tables_number   1
_chemical_formula_structural   Ce2Mn2P2H20W15C25N5O49
_chemical_formula_sum   'Ce4 Mn4 P4 H40 W30 C50 N10 O98'
_cell_volume   4565.49129286
_cell_formula_units_Z   2
loop_
 _symmetry_equiv_pos_site_id
 _symmetry_equiv_pos_as_xyz
  1  'x, y, z'
loop_
 _atom_site_type_symbol
 _atom_site_label
 _atom_site_symmetry_multiplicity
 _atom_site_fract_x
 _atom_site_fract_y
 _atom_site_fract_z
 _atom_site_occupancy
  Ce  Ce0  1  0.35975000  0.36248000  0.50151000  1.0
  Ce  Ce1  1  0.64672000  0.30881000  0.86178000  1.0
  Ce  Ce2  1  0.35328000  0.69119000  0.13822000  1.0
  Ce  Ce3  1  0.64025000  0.63752000  0.49849000  1.0
  Mn  Mn4  1  0.93069000  0.93077000  0.50095000  1.0
  Mn  Mn5  1  0.90514000  0.08616000  0.60840000  1.0
  Mn  Mn6  1  0.09486000  0.91384000  0.39160000  1.0
  Mn  Mn7  1  0.06931000  0.06923000  0.49905000  1.0
  P  P8  1  0.26390000  0.71510000  0.75940000  1.0
  P  P9  1  0.91440000  0.09600000  0.37420000  1.0
  P  P10  1  0.73610000  0.28490000  0.24060000  1.0
  P  P11  1  0.08560000  0.90400000  0.62580000  1.0
  H  H12  1  0.21750000  0.96940000  0.10310000  1.0
  H  H13  1  0.26990000  0.05940000  0.38120000  1.0
  H  H14  1  0.84510000  0.73980000  0.45680000  1.0
  H  H15  1  0.08720000  0.78420000  0.11930000  1.0
  H  H16  1  0.11600000  0.05750000  0.03270000  1.0
  H  H17  1  0.10120000  0.52410000  0.53690000  1.0
  H  H18  1  0.30340000  0.01190000  0.27410000  1.0
  H  H19  1  0.45860000  0.23390000  0.72220000  1.0
  H  H20  1  0.89880000  0.47590000  0.46310000  1.0
  H  H21  1  0.73010000  0.94060000  0.61880000  1.0
  H  H22  1  0.25890000  0.16270000  0.44990000  1.0
  H  H23  1  0.00930000  0.47030000  0.38520000  1.0
  H  H24  1  0.99070000  0.52970000  0.61480000  1.0
  H  H25  1  0.46190000  0.13580000  0.64360000  1.0
  H  H26  1  0.97890000  0.86770000  0.03870000  1.0
  H  H27  1  0.47340000  0.89440000  0.53380000  1.0
  H  H28  1  0.78250000  0.03060000  0.89690000  1.0
  H  H29  1  0.53800000  0.99640000  0.39200000  1.0
  H  H30  1  0.88400000  0.94250000  0.96730000  1.0
  H  H31  1  0.74110000  0.83730000  0.55010000  1.0
  H  H32  1  0.88840000  0.53370000  0.68090000  1.0
  H  H33  1  0.15490000  0.26020000  0.54320000  1.0
  H  H34  1  0.69660000  0.98810000  0.72590000  1.0
  H  H35  1  0.53810000  0.86420000  0.35640000  1.0
  H  H36  1  0.84160000  0.26680000  0.77070000  1.0
  H  H37  1  0.21530000  0.46890000  0.23800000  1.0
  H  H38  1  0.11160000  0.46630000  0.31910000  1.0
  H  H39  1  0.52660000  0.10560000  0.46620000  1.0
  H  H40  1  0.78470000  0.53110000  0.76200000  1.0
  H  H41  1  0.03740000  0.26620000  0.62040000  1.0
  H  H42  1  0.15840000  0.73320000  0.22930000  1.0
  H  H43  1  0.31080000  0.90560000  0.20100000  1.0
  H  H44  1  0.95640000  0.26820000  0.69470000  1.0
  H  H45  1  0.91280000  0.21580000  0.88070000  1.0
  H  H46  1  0.54140000  0.76610000  0.27780000  1.0
  H  H47  1  0.02110000  0.13230000  0.96130000  1.0
  H  H48  1  0.04360000  0.73180000  0.30530000  1.0
  H  H49  1  0.46200000  0.00360000  0.60800000  1.0
  H  H50  1  0.96260000  0.73380000  0.37960000  1.0
  H  H51  1  0.68920000  0.09440000  0.79900000  1.0
  W  W52  1  0.45044000  0.52602000  0.78023000  1.0
  W  W53  1  0.76012000  0.96264000  0.37390000  1.0
  W  W54  1  0.73096000  0.12197000  0.48225000  1.0
  W  W55  1  0.40456000  0.86368000  0.74698000  1.0
  W  W56  1  0.88562000  0.42177000  0.24583000  1.0
  W  W57  1  0.08466000  0.75284000  0.87386000  1.0
  W  W58  1  0.11438000  0.57823000  0.75417000  1.0
  W  W59  1  0.43240000  0.70544000  0.63921000  1.0
  W  W60  1  0.91534000  0.24716000  0.12614000  1.0
  W  W61  1  0.77758000  0.11163000  0.12939000  1.0
  W  W62  1  0.11925000  0.73004000  0.52015000  1.0
  W  W63  1  0.04839000  0.24887000  0.36902000  1.0
  W  W64  1  0.26904000  0.87803000  0.51775000  1.0
  W  W65  1  0.05899000  0.05957000  0.74732000  1.0
  W  W66  1  0.57670000  0.31230000  0.10984000  1.0
  W  W67  1  0.54956000  0.47398000  0.21977000  1.0
  W  W68  1  0.94101000  0.94043000  0.25268000  1.0
  W  W69  1  0.28134000  0.54933000  0.89415000  1.0
  W  W70  1  0.59544000  0.13632000  0.25302000  1.0
  W  W71  1  0.07833000  0.07725000  0.25027000  1.0
  W  W72  1  0.95161000  0.75113000  0.63098000  1.0
  W  W73  1  0.72002000  0.44364000  0.35752000  1.0
  W  W74  1  0.88075000  0.26996000  0.47985000  1.0
  W  W75  1  0.42330000  0.68770000  0.89016000  1.0
  W  W76  1  0.27998000  0.55636000  0.64248000  1.0
  W  W77  1  0.23988000  0.03736000  0.62610000  1.0
  W  W78  1  0.92167000  0.92275000  0.74973000  1.0
  W  W79  1  0.22242000  0.88837000  0.87061000  1.0
  W  W80  1  0.56760000  0.29456000  0.36079000  1.0
  W  W81  1  0.71866000  0.45067000  0.10585000  1.0
  C  C82  1  0.81800000  0.47600000  0.74800000  1.0
  C  C83  1  0.52530000  0.90400000  0.55200000  1.0
  C  C84  1  0.10960000  0.00070000  0.04780000  1.0
  C  C85  1  0.50600000  0.18100000  0.72310000  1.0
  C  C86  1  0.35300000  0.96100000  0.27600000  1.0
  C  C87  1  0.67710000  0.93070000  0.60300000  1.0
  C  C88  1  0.41550000  0.94970000  0.32600000  1.0
  C  C89  1  0.87830000  0.68520000  0.44230000  1.0
  C  C90  1  0.11800000  0.52170000  0.30100000  1.0
  C  C91  1  0.08930000  0.47090000  0.55500000  1.0
  C  C92  1  0.00300000  0.39710000  0.62900000  1.0
  C  C93  1  0.05100000  0.31970000  0.60510000  1.0
  C  C94  1  0.50860000  0.12500000  0.67510000  1.0
  C  C95  1  0.59380000  0.98370000  0.62620000  1.0
  C  C96  1  0.12170000  0.31480000  0.55770000  1.0
  C  C97  1  0.68430000  0.87080000  0.56200000  1.0
  C  C98  1  0.03900000  0.97400000  0.02460000  1.0
  C  C99  1  0.49140000  0.87500000  0.32490000  1.0
  C  C100  1  0.64700000  0.03900000  0.72400000  1.0
  C  C101  1  0.93390000  0.40030000  0.67700000  1.0
  C  C102  1  0.51890000  0.96900000  0.59720000  1.0
  C  C103  1  0.97710000  0.52610000  0.39840000  1.0
  C  C104  1  0.91070000  0.52910000  0.44500000  1.0
  C  C105  1  0.16800000  0.94970000  0.09040000  1.0
  C  C106  1  0.94900000  0.68030000  0.39490000  1.0
  C  C107  1  0.90700000  0.16100000  0.90040000  1.0
  C  C108  1  0.97300000  0.11100000  0.94820000  1.0
  C  C109  1  0.89040000  0.99930000  0.95220000  1.0
  C  C110  1  0.08010000  0.67700000  0.29350000  1.0
  C  C111  1  0.18200000  0.52400000  0.25200000  1.0
  C  C112  1  0.88200000  0.47830000  0.69900000  1.0
  C  C113  1  0.31570000  0.12920000  0.43800000  1.0
  C  C114  1  0.96100000  0.02600000  0.97540000  1.0
  C  C115  1  0.83200000  0.05030000  0.90960000  1.0
  C  C116  1  0.85300000  0.32090000  0.75410000  1.0
  C  C117  1  0.99700000  0.60290000  0.37100000  1.0
  C  C118  1  0.58450000  0.05030000  0.67400000  1.0
  C  C119  1  0.64200000  0.09900000  0.76900000  1.0
  C  C120  1  0.49400000  0.81900000  0.27690000  1.0
  C  C121  1  0.02700000  0.88900000  0.05180000  1.0
  C  C122  1  0.02290000  0.47390000  0.60160000  1.0
  C  C123  1  0.48110000  0.03100000  0.40280000  1.0
  C  C124  1  0.32290000  0.06930000  0.39700000  1.0
  C  C125  1  0.14700000  0.67910000  0.24590000  1.0
  C  C126  1  0.09300000  0.83900000  0.09960000  1.0
  C  C127  1  0.35800000  0.90100000  0.23100000  1.0
  C  C128  1  0.40620000  0.01630000  0.37380000  1.0
  C  C129  1  0.47470000  0.09600000  0.44800000  1.0
  C  C130  1  0.06610000  0.59970000  0.32300000  1.0
  C  C131  1  0.91990000  0.32300000  0.70650000  1.0
  N  N132  1  0.16060000  0.86800000  0.11730000  1.0
  N  N133  1  0.19590000  0.59680000  0.22490000  1.0
  N  N134  1  0.39290000  0.14440000  0.46470000  1.0
  N  N135  1  0.80410000  0.40320000  0.77510000  1.0
  N  N136  1  0.60710000  0.85560000  0.53530000  1.0
  N  N137  1  0.83940000  0.13200000  0.88270000  1.0
  N  N138  1  0.56600000  0.16420000  0.77090000  1.0
  N  N139  1  0.13600000  0.39220000  0.53630000  1.0
  N  N140  1  0.86400000  0.60780000  0.46370000  1.0
  N  N141  1  0.43400000  0.83580000  0.22910000  1.0
  O  O142  1  0.06000000  0.18900000  0.29100000  1.0
  O  O143  1  0.19040000  0.65170000  0.90970000  1.0
  O  O144  1  0.04460000  0.64700000  0.68950000  1.0
  O  O145  1  0.81850000  0.08600000  0.38700000  1.0
  O  O146  1  0.21190000  0.52840000  0.82530000  1.0
  O  O147  1  0.30250000  0.97460000  0.55320000  1.0
  O  O148  1  0.96380000  0.01620000  0.78680000  1.0
  O  O149  1  0.63170000  0.49430000  0.28030000  1.0
  O  O150  1  0.85070000  0.90070000  0.42850000  1.0
  O  O151  1  0.61290000  0.79790000  0.48840000  1.0
  O  O152  1  0.94270000  0.07350000  0.30270000  1.0
  O  O153  1  0.86970000  0.99280000  0.67780000  1.0
  O  O154  1  0.94000000  0.81100000  0.70900000  1.0
  O  O155  1  0.19250000  0.63130000  0.58710000  1.0
  O  O156  1  0.02090000  0.69310000  0.55740000  1.0
  O  O157  1  0.36830000  0.50570000  0.71970000  1.0
  O  O158  1  0.64600000  0.38920000  0.06510000  1.0
  O  O159  1  0.13030000  0.00720000  0.32220000  1.0
  O  O160  1  0.99360000  0.11610000  0.67520000  1.0
  O  O161  1  0.00640000  0.88390000  0.32480000  1.0
  O  O162  1  0.54160000  0.43320000  0.78120000  1.0
  O  O163  1  0.35900000  0.63140000  0.62480000  1.0
  O  O164  1  0.49650000  0.59070000  0.84140000  1.0
  O  O165  1  0.01150000  0.84280000  0.82040000  1.0
  O  O166  1  0.16870000  0.94830000  0.47080000  1.0
  O  O167  1  0.19600000  0.51060000  0.69510000  1.0
  O  O168  1  0.03620000  0.98380000  0.21320000  1.0
  O  O169  1  0.20000000  0.77930000  0.80100000  1.0
  O  O170  1  0.78810000  0.47160000  0.17470000  1.0
  O  O171  1  0.85920000  0.17090000  0.08160000  1.0
  O  O172  1  0.01820000  0.97570000  0.57310000  1.0
  O  O173  1  0.97910000  0.30690000  0.44260000  1.0
  O  O174  1  0.80960000  0.34830000  0.09030000  1.0
  O  O175  1  0.98180000  0.02430000  0.42690000  1.0
  O  O176  1  0.67790000  0.23820000  0.28320000  1.0
  O  O177  1  0.32040000  0.47090000  0.59120000  1.0
  O  O178  1  0.92640000  0.33350000  0.18490000  1.0
  O  O179  1  0.64100000  0.36860000  0.37520000  1.0
  O  O180  1  0.74850000  0.40410000  0.82900000  1.0
  O  O181  1  0.98850000  0.15720000  0.17960000  1.0
  O  O182  1  0.14930000  0.09930000  0.57150000  1.0
  O  O183  1  0.47850000  0.78390000  0.69050000  1.0
  O  O184  1  0.80000000  0.22070000  0.19900000  1.0
  O  O185  1  0.78450000  0.33920000  0.27740000  1.0
  O  O186  1  0.33910000  0.93950000  0.68150000  1.0
  O  O187  1  0.52320000  0.38870000  0.28360000  1.0
  O  O188  1  0.77650000  0.18380000  0.84070000  1.0
  O  O189  1  0.22350000  0.81620000  0.15930000  1.0
  O  O190  1  0.33130000  0.64550000  0.81300000  1.0
  O  O191  1  0.05230000  0.83320000  0.47300000  1.0
  O  O192  1  0.47680000  0.61130000  0.71640000  1.0
  O  O193  1  0.68760000  0.09970000  0.19110000  1.0
  O  O194  1  0.82430000  0.95550000  0.29530000  1.0
  O  O195  1  0.52390000  0.66666667  0.59120000  1.0
  O  O196  1  0.17570000  0.04450000  0.70470000  1.0
  O  O197  1  0.31240000  0.90030000  0.80890000  1.0
  O  O198  1  0.55280000  0.24010000  0.18420000  1.0
  O  O199  1  0.47610000  0.33340000  0.40880000  1.0
  O  O200  1  0.38710000  0.20210000  0.51160000  1.0
  O  O201  1  0.52150000  0.21610000  0.30950000  1.0
  O  O202  1  0.50350000  0.40930000  0.15860000  1.0
  O  O203  1  0.14080000  0.82910000  0.91840000  1.0
  O  O204  1  0.19900000  0.39070000  0.49110000  1.0
  O  O205  1  0.69750000  0.02540000  0.44680000  1.0
  O  O206  1  0.68150000  0.22230000  0.09150000  1.0
  O  O207  1  0.92320000  0.18910000  0.38480000  1.0
  O  O208  1  0.83130000  0.05170000  0.52920000  1.0
  O  O209  1  0.44330000  0.78080000  0.18400000  1.0
  O  O210  1  0.66870000  0.35450000  0.18700000  1.0
  O  O211  1  0.38070000  0.47790000  0.84370000  1.0
  O  O212  1  0.32210000  0.76180000  0.71680000  1.0
  O  O213  1  0.25150000  0.59590000  0.17100000  1.0
  O  O214  1  0.80750000  0.36870000  0.41290000  1.0
  O  O215  1  0.21550000  0.66080000  0.72260000  1.0
  O  O216  1  0.80400000  0.48940000  0.30490000  1.0
  O  O217  1  0.10430000  0.15420000  0.42240000  1.0
  O  O218  1  0.44720000  0.75990000  0.81580000  1.0
  O  O219  1  0.80100000  0.60930000  0.50890000  1.0
  O  O220  1  0.63660000  0.20310000  0.41500000  1.0
  O  O221  1  0.21950000  0.77690000  0.52450000  1.0
  O  O222  1  0.18150000  0.91400000  0.61300000  1.0
  O  O223  1  0.61930000  0.52210000  0.15630000  1.0
  O  O224  1  0.05730000  0.92650000  0.69730000  1.0
  O  O225  1  0.67960000  0.52910000  0.40880000  1.0
  O  O226  1  0.78050000  0.22310000  0.47550000  1.0
  O  O227  1  0.36340000  0.79690000  0.58500000  1.0
  O  O228  1  0.07680000  0.81090000  0.61520000  1.0
  O  O229  1  0.66090000  0.06050000  0.31850000  1.0
  O  O230  1  0.55670000  0.21920000  0.81600000  1.0
  O  O231  1  0.07360000  0.66650000  0.81510000  1.0
  O  O232  1  0.31850000  0.77770000  0.90850000  1.0
  O  O233  1  0.35400000  0.61080000  0.93490000  1.0
  O  O234  1  0.45840000  0.56680000  0.21880000  1.0
  O  O235  1  0.89570000  0.84580000  0.57760000  1.0
  O  O236  1  0.86360000  0.03380000  0.18100000  1.0
  O  O237  1  0.13640000  0.96620000  0.81900000  1.0
  O  O238  1  0.95540000  0.35300000  0.31050000  1.0
  O  O239  1  0.94770000  0.16680000  0.52700000  1.0
