# generated using pymatgen
data_PrHC5(NO2)2
_symmetry_space_group_name_H-M   'P 1'
_cell_length_a   16.60040000
_cell_length_b   16.60040000
_cell_length_c   16.60040000
_cell_angle_alpha   104.57300000
_cell_angle_beta   104.57300000
_cell_angle_gamma   119.78600000
_symmetry_Int_Tables_number   1
_chemical_formula_structural   PrHC5(NO2)2
_chemical_formula_sum   'Pr16 H16 C80 N32 O64'
_cell_volume   3434.65772470
_cell_formula_units_Z   16
loop_
 _symmetry_equiv_pos_site_id
 _symmetry_equiv_pos_as_xyz
  1  'x, y, z'
loop_
 _atom_site_type_symbol
 _atom_site_label
 _atom_site_symmetry_multiplicity
 _atom_site_fract_x
 _atom_site_fract_y
 _atom_site_fract_z
 _atom_site_occupancy
  Pr  Pr0  1  0.74510000  0.76164000  0.36118000  1.0
  Pr  Pr1  1  0.48883000  0.87084000  0.01791000  1.0
  Pr  Pr2  1  0.90046000  0.38392000  0.13882000  1.0
  Pr  Pr3  1  0.35293000  0.47092000  0.48209000  1.0
  Pr  Pr4  1  0.88392000  0.24510000  0.48346000  1.0
  Pr  Pr5  1  0.97092000  0.98883000  0.11799000  1.0
  Pr  Pr6  1  0.26164000  0.40046000  0.01654000  1.0
  Pr  Pr7  1  0.37084000  0.85293000  0.38201000  1.0
  Pr  Pr8  1  0.25490000  0.23836000  0.63882000  1.0
  Pr  Pr9  1  0.51117000  0.12916000  0.98209000  1.0
  Pr  Pr10  1  0.09954000  0.61608000  0.86118000  1.0
  Pr  Pr11  1  0.64707000  0.52908000  0.51791000  1.0
  Pr  Pr12  1  0.11608000  0.75490000  0.51654000  1.0
  Pr  Pr13  1  0.02908000  0.01117000  0.88201000  1.0
  Pr  Pr14  1  0.73836000  0.59954000  0.98346000  1.0
  Pr  Pr15  1  0.62916000  0.14707000  0.61799000  1.0
  H  H16  1  0.68670000  0.91250000  0.23620000  1.0
  H  H17  1  0.62300000  0.89610000  0.38530000  1.0
  H  H18  1  0.17630000  0.45050000  0.26380000  1.0
  H  H19  1  0.01080000  0.23770000  0.11470000  1.0
  H  H20  1  0.95050000  0.18670000  0.27420000  1.0
  H  H21  1  0.73770000  0.12300000  0.22690000  1.0
  H  H22  1  0.41250000  0.67630000  0.22580000  1.0
  H  H23  1  0.39610000  0.51080000  0.27310000  1.0
  H  H24  1  0.31330000  0.08750000  0.76380000  1.0
  H  H25  1  0.37700000  0.10390000  0.61470000  1.0
  H  H26  1  0.82370000  0.54950000  0.73620000  1.0
  H  H27  1  0.98920000  0.76230000  0.88530000  1.0
  H  H28  1  0.04950000  0.81330000  0.72580000  1.0
  H  H29  1  0.26230000  0.87700000  0.77310000  1.0
  H  H30  1  0.58750000  0.32370000  0.77420000  1.0
  H  H31  1  0.60390000  0.48920000  0.72690000  1.0
  C  C32  1  0.63500000  0.84150000  0.20070000  1.0
  C  C33  1  0.55040000  0.68000000  0.15380000  1.0
  C  C34  1  0.49750000  0.69720000  0.08990000  1.0
  C  C35  1  0.40150000  0.63280000  0.00030000  1.0
  C  C36  1  0.53100000  0.58430000  0.16330000  1.0
  C  C37  1  0.59080000  0.84310000  0.40190000  1.0
  C  C38  1  0.55630000  0.71790000  0.43540000  1.0
  C  C39  1  0.48970000  0.74390000  0.44460000  1.0
  C  C40  1  0.40040000  0.69860000  0.46680000  1.0
  C  C41  1  0.57350000  0.64230000  0.44780000  1.0
  C  C42  1  0.14080000  0.43430000  0.29930000  1.0
  C  C43  1  0.02620000  0.39660000  0.34620000  1.0
  C  C44  1  0.10730000  0.40760000  0.41010000  1.0
  C  C45  1  0.13250000  0.40120000  0.49970000  1.0
  C  C46  1  0.92100000  0.36770000  0.33670000  1.0
  C  C47  1  0.94120000  0.18890000  0.09810000  1.0
  C  C48  1  0.78250000  0.12090000  0.06460000  1.0
  C  C49  1  0.79930000  0.04510000  0.05540000  1.0
  C  C50  1  0.73180000  0.93360000  0.03320000  1.0
  C  C51  1  0.69450000  0.12570000  0.05220000  1.0
  C  C52  1  0.93430000  0.13500000  0.29350000  1.0
  C  C53  1  0.89660000  0.05040000  0.37040000  1.0
  C  C54  1  0.90760000  0.99750000  0.30030000  1.0
  C  C55  1  0.90120000  0.90150000  0.26870000  1.0
  C  C56  1  0.86770000  0.03100000  0.44670000  1.0
  C  C57  1  0.68890000  0.09080000  0.24770000  1.0
  C  C58  1  0.62090000  0.05630000  0.33840000  1.0
  C  C59  1  0.54510000  0.98970000  0.24580000  1.0
  C  C60  1  0.43360000  0.90040000  0.20180000  1.0
  C  C61  1  0.62570000  0.07350000  0.43120000  1.0
  C  C62  1  0.34150000  0.64080000  0.20650000  1.0
  C  C63  1  0.18000000  0.52620000  0.12960000  1.0
  C  C64  1  0.19720000  0.60730000  0.19970000  1.0
  C  C65  1  0.13280000  0.63250000  0.23130000  1.0
  C  C66  1  0.08430000  0.42100000  0.05330000  1.0
  C  C67  1  0.34310000  0.44120000  0.25230000  1.0
  C  C68  1  0.21790000  0.28250000  0.16160000  1.0
  C  C69  1  0.24390000  0.29930000  0.25420000  1.0
  C  C70  1  0.19860000  0.23180000  0.29820000  1.0
  C  C71  1  0.14230000  0.19450000  0.06880000  1.0
  C  C72  1  0.36500000  0.15850000  0.79930000  1.0
  C  C73  1  0.44960000  0.32000000  0.84620000  1.0
  C  C74  1  0.50250000  0.30280000  0.91010000  1.0
  C  C75  1  0.59850000  0.36720000  0.99970000  1.0
  C  C76  1  0.46900000  0.41570000  0.83670000  1.0
  C  C77  1  0.40920000  0.15690000  0.59810000  1.0
  C  C78  1  0.44370000  0.28210000  0.56460000  1.0
  C  C79  1  0.51030000  0.25610000  0.55540000  1.0
  C  C80  1  0.59960000  0.30140000  0.53320000  1.0
  C  C81  1  0.42650000  0.35770000  0.55220000  1.0
  C  C82  1  0.85920000  0.56570000  0.70070000  1.0
  C  C83  1  0.97380000  0.60340000  0.65380000  1.0
  C  C84  1  0.89270000  0.59240000  0.58990000  1.0
  C  C85  1  0.86750000  0.59880000  0.50030000  1.0
  C  C86  1  0.07900000  0.63230000  0.66330000  1.0
  C  C87  1  0.05880000  0.81110000  0.90190000  1.0
  C  C88  1  0.21750000  0.87910000  0.93540000  1.0
  C  C89  1  0.20070000  0.95490000  0.94460000  1.0
  C  C90  1  0.26820000  0.06640000  0.96680000  1.0
  C  C91  1  0.30550000  0.87430000  0.94780000  1.0
  C  C92  1  0.06570000  0.86500000  0.70650000  1.0
  C  C93  1  0.10340000  0.94960000  0.62960000  1.0
  C  C94  1  0.09240000  0.00250000  0.69970000  1.0
  C  C95  1  0.09880000  0.09850000  0.73130000  1.0
  C  C96  1  0.13230000  0.96900000  0.55330000  1.0
  C  C97  1  0.31110000  0.90920000  0.75230000  1.0
  C  C98  1  0.37910000  0.94370000  0.66160000  1.0
  C  C99  1  0.45490000  0.01030000  0.75420000  1.0
  C  C100  1  0.56640000  0.09960000  0.79820000  1.0
  C  C101  1  0.37430000  0.92650000  0.56880000  1.0
  C  C102  1  0.65850000  0.35920000  0.79350000  1.0
  C  C103  1  0.82000000  0.47380000  0.87040000  1.0
  C  C104  1  0.80280000  0.39270000  0.80030000  1.0
  C  C105  1  0.86720000  0.36750000  0.76870000  1.0
  C  C106  1  0.91570000  0.57900000  0.94670000  1.0
  C  C107  1  0.65690000  0.55880000  0.74770000  1.0
  C  C108  1  0.78210000  0.71750000  0.83840000  1.0
  C  C109  1  0.75610000  0.70070000  0.74580000  1.0
  C  C110  1  0.80140000  0.76820000  0.70180000  1.0
  C  C111  1  0.85770000  0.80550000  0.93120000  1.0
  N  N112  1  0.55310000  0.80390000  0.12240000  1.0
  N  N113  1  0.63940000  0.77380000  0.22540000  1.0
  N  N114  1  0.62130000  0.78440000  0.40690000  1.0
  N  N115  1  0.51120000  0.82340000  0.42140000  1.0
  N  N116  1  0.18150000  0.43070000  0.37760000  1.0
  N  N117  1  0.04840000  0.41400000  0.27460000  1.0
  N  N118  1  0.87750000  0.21440000  0.09310000  1.0
  N  N119  1  0.90200000  0.08980000  0.07860000  1.0
  N  N120  1  0.93070000  0.05310000  0.24920000  1.0
  N  N121  1  0.91400000  0.13940000  0.36560000  1.0
  N  N122  1  0.71440000  0.12130000  0.33690000  1.0
  N  N123  1  0.58980000  0.01120000  0.18780000  1.0
  N  N124  1  0.30390000  0.68150000  0.25080000  1.0
  N  N125  1  0.27380000  0.54840000  0.13440000  1.0
  N  N126  1  0.28440000  0.37750000  0.16310000  1.0
  N  N127  1  0.32340000  0.40200000  0.31220000  1.0
  N  N128  1  0.44690000  0.19610000  0.87760000  1.0
  N  N129  1  0.36060000  0.22620000  0.77460000  1.0
  N  N130  1  0.37870000  0.21560000  0.59310000  1.0
  N  N131  1  0.48880000  0.17660000  0.57860000  1.0
  N  N132  1  0.81850000  0.56930000  0.62240000  1.0
  N  N133  1  0.95160000  0.58600000  0.72540000  1.0
  N  N134  1  0.12250000  0.78560000  0.90690000  1.0
  N  N135  1  0.09800000  0.91020000  0.92140000  1.0
  N  N136  1  0.06930000  0.94690000  0.75080000  1.0
  N  N137  1  0.08600000  0.86060000  0.63440000  1.0
  N  N138  1  0.28560000  0.87870000  0.66310000  1.0
  N  N139  1  0.41020000  0.98880000  0.81220000  1.0
  N  N140  1  0.69610000  0.31850000  0.74920000  1.0
  N  N141  1  0.72620000  0.45160000  0.86560000  1.0
  N  N142  1  0.71560000  0.62250000  0.83690000  1.0
  N  N143  1  0.67660000  0.59800000  0.68780000  1.0
  O  O144  1  0.39090000  0.68110000  0.95640000  1.0
  O  O145  1  0.33780000  0.53670000  0.97010000  1.0
  O  O146  1  0.44550000  0.49750000  0.10520000  1.0
  O  O147  1  0.60220000  0.59780000  0.22700000  1.0
  O  O148  1  0.34990000  0.73460000  0.45630000  1.0
  O  O149  1  0.38240000  0.63120000  0.49580000  1.0
  O  O150  1  0.52740000  0.58520000  0.48440000  1.0
  O  O151  1  0.63970000  0.63760000  0.42530000  1.0
  O  O152  1  0.22470000  0.43450000  0.54360000  1.0
  O  O153  1  0.06660000  0.36770000  0.52990000  1.0
  O  O154  1  0.89230000  0.34030000  0.39480000  1.0
  O  O155  1  0.87080000  0.37520000  0.27300000  1.0
  O  O156  1  0.77830000  0.89360000  0.04370000  1.0
  O  O157  1  0.63540000  0.88660000  0.00420000  1.0
  O  O158  1  0.60080000  0.04300000  0.01560000  1.0
  O  O159  1  0.71230000  0.21440000  0.07470000  1.0
  O  O160  1  0.93450000  0.89090000  0.20980000  1.0
  O  O161  1  0.86770000  0.83780000  0.30110000  1.0
  O  O162  1  0.84030000  0.94550000  0.44800000  1.0
  O  O163  1  0.87520000  0.10220000  0.50440000  1.0
  O  O164  1  0.39360000  0.84990000  0.11530000  1.0
  O  O165  1  0.38660000  0.88240000  0.25120000  1.0
  O  O166  1  0.54300000  0.02740000  0.44220000  1.0
  O  O167  1  0.71440000  0.13970000  0.50210000  1.0
  O  O168  1  0.18110000  0.72470000  0.29020000  1.0
  O  O169  1  0.03670000  0.56660000  0.19890000  1.0
  O  O170  1  0.99750000  0.39230000  0.05200000  1.0
  O  O171  1  0.09780000  0.37080000  0.99560000  1.0
  O  O172  1  0.23460000  0.27830000  0.38470000  1.0
  O  O173  1  0.13120000  0.13540000  0.24880000  1.0
  O  O174  1  0.08520000  0.10080000  0.05780000  1.0
  O  O175  1  0.13760000  0.21230000  0.99790000  1.0
  O  O176  1  0.60910000  0.31890000  0.04360000  1.0
  O  O177  1  0.66220000  0.46330000  0.02990000  1.0
  O  O178  1  0.55450000  0.50250000  0.89480000  1.0
  O  O179  1  0.39780000  0.40220000  0.77300000  1.0
  O  O180  1  0.65010000  0.26540000  0.54370000  1.0
  O  O181  1  0.61760000  0.36880000  0.50420000  1.0
  O  O182  1  0.47260000  0.41480000  0.51560000  1.0
  O  O183  1  0.36030000  0.36240000  0.57470000  1.0
  O  O184  1  0.77530000  0.56550000  0.45640000  1.0
  O  O185  1  0.93340000  0.63230000  0.47010000  1.0
  O  O186  1  0.10770000  0.65970000  0.60520000  1.0
  O  O187  1  0.12920000  0.62480000  0.72700000  1.0
  O  O188  1  0.22170000  0.10640000  0.95630000  1.0
  O  O189  1  0.36460000  0.11340000  0.99580000  1.0
  O  O190  1  0.39920000  0.95700000  0.98440000  1.0
  O  O191  1  0.28770000  0.78560000  0.92530000  1.0
  O  O192  1  0.06550000  0.10910000  0.79020000  1.0
  O  O193  1  0.13230000  0.16220000  0.69890000  1.0
  O  O194  1  0.15970000  0.05450000  0.55200000  1.0
  O  O195  1  0.12480000  0.89780000  0.49560000  1.0
  O  O196  1  0.60640000  0.15010000  0.88470000  1.0
  O  O197  1  0.61340000  0.11760000  0.74880000  1.0
  O  O198  1  0.45700000  0.97260000  0.55780000  1.0
  O  O199  1  0.28560000  0.86030000  0.49790000  1.0
  O  O200  1  0.81890000  0.27530000  0.70980000  1.0
  O  O201  1  0.96330000  0.43340000  0.80110000  1.0
  O  O202  1  0.00250000  0.60770000  0.94800000  1.0
  O  O203  1  0.90220000  0.62920000  0.00440000  1.0
  O  O204  1  0.76540000  0.72170000  0.61530000  1.0
  O  O205  1  0.86880000  0.86460000  0.75120000  1.0
  O  O206  1  0.91480000  0.89920000  0.94220000  1.0
  O  O207  1  0.86240000  0.78770000  0.00210000  1.0
