# generated using pymatgen
data_AgH12C28(S3N2)2
_symmetry_space_group_name_H-M   'P 1'
_cell_length_a   22.84110000
_cell_length_b   12.58250000
_cell_length_c   22.97450000
_cell_angle_alpha   90.00000000
_cell_angle_beta   90.00000000
_cell_angle_gamma   90.00000000
_symmetry_Int_Tables_number   1
_chemical_formula_structural   AgH12C28(S3N2)2
_chemical_formula_sum   'Ag8 H96 C224 S48 N32'
_cell_volume   6602.82858466
_cell_formula_units_Z   8
loop_
 _symmetry_equiv_pos_site_id
 _symmetry_equiv_pos_as_xyz
  1  'x, y, z'
loop_
 _atom_site_type_symbol
 _atom_site_label
 _atom_site_symmetry_multiplicity
 _atom_site_fract_x
 _atom_site_fract_y
 _atom_site_fract_z
 _atom_site_occupancy
  Ag  Ag0  1  0.75343000  0.87435000  0.53106000  1.0
  Ag  Ag1  1  0.74657000  0.12565000  0.03106000  1.0
  Ag  Ag2  1  0.24657000  0.37435000  0.96894000  1.0
  Ag  Ag3  1  0.25343000  0.62565000  0.46894000  1.0
  Ag  Ag4  1  0.24657000  0.12565000  0.46894000  1.0
  Ag  Ag5  1  0.25343000  0.87435000  0.96894000  1.0
  Ag  Ag6  1  0.75343000  0.62565000  0.03106000  1.0
  Ag  Ag7  1  0.74657000  0.37435000  0.53106000  1.0
  H  H8  1  0.88790000  0.31140000  0.72810000  1.0
  H  H9  1  0.88750000  0.14710000  0.67260000  1.0
  H  H10  1  0.69200000  0.41710000  0.74790000  1.0
  H  H11  1  0.68840000  0.58100000  0.80350000  1.0
  H  H12  1  0.87640000  0.86620000  0.88540000  1.0
  H  H13  1  0.88150000  0.70310000  0.82750000  1.0
  H  H14  1  0.60860000  0.63310000  0.38920000  1.0
  H  H15  1  0.55480000  0.47030000  0.37710000  1.0
  H  H16  1  0.47510000  0.15580000  0.55220000  1.0
  H  H17  1  0.53250000  0.31940000  0.56170000  1.0
  H  H18  1  0.46270000  0.07170000  0.35640000  1.0
  H  H19  1  0.40320000  0.90970000  0.34680000  1.0
  H  H20  1  0.61210000  0.68860000  0.22810000  1.0
  H  H21  1  0.61250000  0.85290000  0.17260000  1.0
  H  H22  1  0.80800000  0.58290000  0.24790000  1.0
  H  H23  1  0.81160000  0.41900000  0.30350000  1.0
  H  H24  1  0.62360000  0.13380000  0.38540000  1.0
  H  H25  1  0.61850000  0.29690000  0.32750000  1.0
  H  H26  1  0.89140000  0.36690000  0.88920000  1.0
  H  H27  1  0.94520000  0.52970000  0.87710000  1.0
  H  H28  1  0.02490000  0.84420000  0.05220000  1.0
  H  H29  1  0.96750000  0.68060000  0.06170000  1.0
  H  H30  1  0.03730000  0.92830000  0.85640000  1.0
  H  H31  1  0.09680000  0.09030000  0.84680000  1.0
  H  H32  1  0.11210000  0.81140000  0.77190000  1.0
  H  H33  1  0.11250000  0.64710000  0.82740000  1.0
  H  H34  1  0.30800000  0.91710000  0.75210000  1.0
  H  H35  1  0.31160000  0.08100000  0.69650000  1.0
  H  H36  1  0.12360000  0.36620000  0.61460000  1.0
  H  H37  1  0.11850000  0.20310000  0.67250000  1.0
  H  H38  1  0.39140000  0.13310000  0.11080000  1.0
  H  H39  1  0.44520000  0.97030000  0.12290000  1.0
  H  H40  1  0.52490000  0.65580000  0.94780000  1.0
  H  H41  1  0.46750000  0.81940000  0.93830000  1.0
  H  H42  1  0.53730000  0.57170000  0.14360000  1.0
  H  H43  1  0.59680000  0.40970000  0.15320000  1.0
  H  H44  1  0.38790000  0.18860000  0.27190000  1.0
  H  H45  1  0.38750000  0.35290000  0.32740000  1.0
  H  H46  1  0.19200000  0.08290000  0.25210000  1.0
  H  H47  1  0.18840000  0.91900000  0.19650000  1.0
  H  H48  1  0.37640000  0.63380000  0.11460000  1.0
  H  H49  1  0.38150000  0.79690000  0.17250000  1.0
  H  H50  1  0.10860000  0.86690000  0.61080000  1.0
  H  H51  1  0.05480000  0.02970000  0.62290000  1.0
  H  H52  1  0.97510000  0.34420000  0.44780000  1.0
  H  H53  1  0.03250000  0.18060000  0.43830000  1.0
  H  H54  1  0.96270000  0.42830000  0.64360000  1.0
  H  H55  1  0.90320000  0.59030000  0.65320000  1.0
  H  H56  1  0.11210000  0.68860000  0.27190000  1.0
  H  H57  1  0.11250000  0.85290000  0.32740000  1.0
  H  H58  1  0.30800000  0.58290000  0.25210000  1.0
  H  H59  1  0.31160000  0.41900000  0.19650000  1.0
  H  H60  1  0.12360000  0.13380000  0.11460000  1.0
  H  H61  1  0.11850000  0.29690000  0.17250000  1.0
  H  H62  1  0.39140000  0.36690000  0.61080000  1.0
  H  H63  1  0.44520000  0.52970000  0.62290000  1.0
  H  H64  1  0.52490000  0.84420000  0.44780000  1.0
  H  H65  1  0.46750000  0.68060000  0.43830000  1.0
  H  H66  1  0.53730000  0.92830000  0.64360000  1.0
  H  H67  1  0.59680000  0.09030000  0.65320000  1.0
  H  H68  1  0.38790000  0.31140000  0.77190000  1.0
  H  H69  1  0.38750000  0.14710000  0.82740000  1.0
  H  H70  1  0.19200000  0.41710000  0.75210000  1.0
  H  H71  1  0.18840000  0.58100000  0.69650000  1.0
  H  H72  1  0.37640000  0.86620000  0.61460000  1.0
  H  H73  1  0.38150000  0.70310000  0.67250000  1.0
  H  H74  1  0.10860000  0.63310000  0.11080000  1.0
  H  H75  1  0.05480000  0.47030000  0.12290000  1.0
  H  H76  1  0.97510000  0.15580000  0.94780000  1.0
  H  H77  1  0.03250000  0.31940000  0.93830000  1.0
  H  H78  1  0.96270000  0.07170000  0.14360000  1.0
  H  H79  1  0.90320000  0.90970000  0.15320000  1.0
  H  H80  1  0.88790000  0.18860000  0.22810000  1.0
  H  H81  1  0.88750000  0.35290000  0.17260000  1.0
  H  H82  1  0.69200000  0.08290000  0.24790000  1.0
  H  H83  1  0.68840000  0.91900000  0.30350000  1.0
  H  H84  1  0.87640000  0.63380000  0.38540000  1.0
  H  H85  1  0.88150000  0.79690000  0.32750000  1.0
  H  H86  1  0.60860000  0.86690000  0.88920000  1.0
  H  H87  1  0.55480000  0.02970000  0.87710000  1.0
  H  H88  1  0.47510000  0.34420000  0.05220000  1.0
  H  H89  1  0.53250000  0.18060000  0.06170000  1.0
  H  H90  1  0.46270000  0.42830000  0.85640000  1.0
  H  H91  1  0.40320000  0.59030000  0.84680000  1.0
  H  H92  1  0.61210000  0.81140000  0.72810000  1.0
  H  H93  1  0.61250000  0.64710000  0.67260000  1.0
  H  H94  1  0.80800000  0.91710000  0.74790000  1.0
  H  H95  1  0.81160000  0.08100000  0.80350000  1.0
  H  H96  1  0.62360000  0.36620000  0.88540000  1.0
  H  H97  1  0.61850000  0.20310000  0.82750000  1.0
  H  H98  1  0.89140000  0.13310000  0.38920000  1.0
  H  H99  1  0.94520000  0.97030000  0.37710000  1.0
  H  H100  1  0.02490000  0.65580000  0.55220000  1.0
  H  H101  1  0.96750000  0.81940000  0.56170000  1.0
  H  H102  1  0.03730000  0.57170000  0.35640000  1.0
  H  H103  1  0.09680000  0.40970000  0.34680000  1.0
  C  C104  1  0.78410000  0.07230000  0.62560000  1.0
  C  C105  1  0.80060000  0.16290000  0.65870000  1.0
  C  C106  1  0.79970000  0.32730000  0.71530000  1.0
  C  C107  1  0.85410000  0.28220000  0.71120000  1.0
  C  C108  1  0.85380000  0.18840000  0.67920000  1.0
  C  C109  1  0.78080000  0.42180000  0.74660000  1.0
  C  C110  1  0.72570000  0.45440000  0.75960000  1.0
  C  C111  1  0.72360000  0.54840000  0.79190000  1.0
  C  C112  1  0.77790000  0.58830000  0.80500000  1.0
  C  C113  1  0.79250000  0.68250000  0.83640000  1.0
  C  C114  1  0.78930000  0.84570000  0.89590000  1.0
  C  C115  1  0.84370000  0.82360000  0.87700000  1.0
  C  C116  1  0.84670000  0.73010000  0.84340000  1.0
  C  C117  1  0.77110000  0.93440000  0.92880000  1.0
  C  C118  1  0.65230000  0.68730000  0.49850000  1.0
  C  C119  1  0.61940000  0.59990000  0.47570000  1.0
  C  C120  1  0.60090000  0.58520000  0.41970000  1.0
  C  C121  1  0.57000000  0.49280000  0.41300000  1.0
  C  C122  1  0.56340000  0.43620000  0.46330000  1.0
  C  C123  1  0.53150000  0.33780000  0.47410000  1.0
  C  C124  1  0.47440000  0.17090000  0.46420000  1.0
  C  C125  1  0.48710000  0.19690000  0.52020000  1.0
  C  C126  1  0.52000000  0.29160000  0.52580000  1.0
  C  C127  1  0.44350000  0.08020000  0.44200000  1.0
  C  C128  1  0.44260000  0.04040000  0.38760000  1.0
  C  C129  1  0.40840000  0.94700000  0.38190000  1.0
  C  C130  1  0.38430000  0.91850000  0.43330000  1.0
  C  C131  1  0.34920000  0.82580000  0.44620000  1.0
  C  C132  1  0.71590000  0.92770000  0.12560000  1.0
  C  C133  1  0.69940000  0.83710000  0.15870000  1.0
  C  C134  1  0.70030000  0.67270000  0.21530000  1.0
  C  C135  1  0.64590000  0.71780000  0.21120000  1.0
  C  C136  1  0.64620000  0.81160000  0.17920000  1.0
  C  C137  1  0.71920000  0.57820000  0.24660000  1.0
  C  C138  1  0.77430000  0.54560000  0.25960000  1.0
  C  C139  1  0.77640000  0.45160000  0.29190000  1.0
  C  C140  1  0.72210000  0.41170000  0.30500000  1.0
  C  C141  1  0.70750000  0.31750000  0.33640000  1.0
  C  C142  1  0.71070000  0.15430000  0.39590000  1.0
  C  C143  1  0.65630000  0.17640000  0.37700000  1.0
  C  C144  1  0.65330000  0.26990000  0.34340000  1.0
  C  C145  1  0.72890000  0.06560000  0.42880000  1.0
  C  C146  1  0.84770000  0.31270000  0.99850000  1.0
  C  C147  1  0.88060000  0.40010000  0.97570000  1.0
  C  C148  1  0.89910000  0.41480000  0.91970000  1.0
  C  C149  1  0.93000000  0.50720000  0.91300000  1.0
  C  C150  1  0.93660000  0.56380000  0.96330000  1.0
  C  C151  1  0.96850000  0.66220000  0.97410000  1.0
  C  C152  1  0.02560000  0.82910000  0.96420000  1.0
  C  C153  1  0.01290000  0.80310000  0.02020000  1.0
  C  C154  1  0.98000000  0.70840000  0.02580000  1.0
  C  C155  1  0.05650000  0.91980000  0.94200000  1.0
  C  C156  1  0.05740000  0.95960000  0.88760000  1.0
  C  C157  1  0.09160000  0.05300000  0.88190000  1.0
  C  C158  1  0.11570000  0.08150000  0.93330000  1.0
  C  C159  1  0.15080000  0.17420000  0.94620000  1.0
  C  C160  1  0.21590000  0.57230000  0.87440000  1.0
  C  C161  1  0.19940000  0.66290000  0.84130000  1.0
  C  C162  1  0.20030000  0.82730000  0.78470000  1.0
  C  C163  1  0.14590000  0.78220000  0.78880000  1.0
  C  C164  1  0.14620000  0.68840000  0.82080000  1.0
  C  C165  1  0.21920000  0.92180000  0.75340000  1.0
  C  C166  1  0.27430000  0.95440000  0.74040000  1.0
  C  C167  1  0.27640000  0.04840000  0.70810000  1.0
  C  C168  1  0.22210000  0.08830000  0.69500000  1.0
  C  C169  1  0.20750000  0.18250000  0.66360000  1.0
  C  C170  1  0.21070000  0.34570000  0.60410000  1.0
  C  C171  1  0.15630000  0.32360000  0.62300000  1.0
  C  C172  1  0.15330000  0.23010000  0.65660000  1.0
  C  C173  1  0.22890000  0.43440000  0.57120000  1.0
  C  C174  1  0.34770000  0.18730000  0.00150000  1.0
  C  C175  1  0.38060000  0.09990000  0.02430000  1.0
  C  C176  1  0.39910000  0.08520000  0.08030000  1.0
  C  C177  1  0.43000000  0.99280000  0.08700000  1.0
  C  C178  1  0.43660000  0.93620000  0.03670000  1.0
  C  C179  1  0.46850000  0.83780000  0.02590000  1.0
  C  C180  1  0.52560000  0.67090000  0.03580000  1.0
  C  C181  1  0.51290000  0.69690000  0.97980000  1.0
  C  C182  1  0.48000000  0.79160000  0.97420000  1.0
  C  C183  1  0.55650000  0.58020000  0.05800000  1.0
  C  C184  1  0.55740000  0.54040000  0.11240000  1.0
  C  C185  1  0.59160000  0.44700000  0.11810000  1.0
  C  C186  1  0.61570000  0.41850000  0.06670000  1.0
  C  C187  1  0.65080000  0.32580000  0.05380000  1.0
  C  C188  1  0.28410000  0.42770000  0.37440000  1.0
  C  C189  1  0.30060000  0.33710000  0.34130000  1.0
  C  C190  1  0.29970000  0.17270000  0.28470000  1.0
  C  C191  1  0.35410000  0.21780000  0.28880000  1.0
  C  C192  1  0.35380000  0.31160000  0.32080000  1.0
  C  C193  1  0.28080000  0.07820000  0.25340000  1.0
  C  C194  1  0.22570000  0.04560000  0.24040000  1.0
  C  C195  1  0.22360000  0.95160000  0.20810000  1.0
  C  C196  1  0.27790000  0.91170000  0.19500000  1.0
  C  C197  1  0.29250000  0.81750000  0.16360000  1.0
  C  C198  1  0.28930000  0.65430000  0.10410000  1.0
  C  C199  1  0.34370000  0.67640000  0.12300000  1.0
  C  C200  1  0.34670000  0.76990000  0.15660000  1.0
  C  C201  1  0.27110000  0.56560000  0.07120000  1.0
  C  C202  1  0.15230000  0.81270000  0.50150000  1.0
  C  C203  1  0.11940000  0.90010000  0.52430000  1.0
  C  C204  1  0.10090000  0.91480000  0.58030000  1.0
  C  C205  1  0.07000000  0.00720000  0.58700000  1.0
  C  C206  1  0.06340000  0.06380000  0.53670000  1.0
  C  C207  1  0.03150000  0.16220000  0.52590000  1.0
  C  C208  1  0.97440000  0.32910000  0.53580000  1.0
  C  C209  1  0.98710000  0.30310000  0.47980000  1.0
  C  C210  1  0.02000000  0.20840000  0.47420000  1.0
  C  C211  1  0.94350000  0.41980000  0.55800000  1.0
  C  C212  1  0.94260000  0.45960000  0.61240000  1.0
  C  C213  1  0.90840000  0.55300000  0.61810000  1.0
  C  C214  1  0.88430000  0.58150000  0.56670000  1.0
  C  C215  1  0.84920000  0.67420000  0.55380000  1.0
  C  C216  1  0.21590000  0.92770000  0.37440000  1.0
  C  C217  1  0.19940000  0.83710000  0.34130000  1.0
  C  C218  1  0.20030000  0.67270000  0.28470000  1.0
  C  C219  1  0.14590000  0.71780000  0.28880000  1.0
  C  C220  1  0.14620000  0.81160000  0.32080000  1.0
  C  C221  1  0.21920000  0.57820000  0.25340000  1.0
  C  C222  1  0.27430000  0.54560000  0.24040000  1.0
  C  C223  1  0.27640000  0.45160000  0.20810000  1.0
  C  C224  1  0.22210000  0.41170000  0.19500000  1.0
  C  C225  1  0.20750000  0.31750000  0.16360000  1.0
  C  C226  1  0.21070000  0.15430000  0.10410000  1.0
  C  C227  1  0.15630000  0.17640000  0.12300000  1.0
  C  C228  1  0.15330000  0.26990000  0.15660000  1.0
  C  C229  1  0.22890000  0.06560000  0.07120000  1.0
  C  C230  1  0.34770000  0.31270000  0.50150000  1.0
  C  C231  1  0.38060000  0.40010000  0.52430000  1.0
  C  C232  1  0.39910000  0.41480000  0.58030000  1.0
  C  C233  1  0.43000000  0.50720000  0.58700000  1.0
  C  C234  1  0.43660000  0.56380000  0.53670000  1.0
  C  C235  1  0.46850000  0.66220000  0.52590000  1.0
  C  C236  1  0.52560000  0.82910000  0.53580000  1.0
  C  C237  1  0.51290000  0.80310000  0.47980000  1.0
  C  C238  1  0.48000000  0.70840000  0.47420000  1.0
  C  C239  1  0.55650000  0.91980000  0.55800000  1.0
  C  C240  1  0.55740000  0.95960000  0.61240000  1.0
  C  C241  1  0.59160000  0.05300000  0.61810000  1.0
  C  C242  1  0.61570000  0.08150000  0.56670000  1.0
  C  C243  1  0.65080000  0.17420000  0.55380000  1.0
  C  C244  1  0.28410000  0.07230000  0.87440000  1.0
  C  C245  1  0.30060000  0.16290000  0.84130000  1.0
  C  C246  1  0.29970000  0.32730000  0.78470000  1.0
  C  C247  1  0.35410000  0.28220000  0.78880000  1.0
  C  C248  1  0.35380000  0.18840000  0.82080000  1.0
  C  C249  1  0.28080000  0.42180000  0.75340000  1.0
  C  C250  1  0.22570000  0.45440000  0.74040000  1.0
  C  C251  1  0.22360000  0.54840000  0.70810000  1.0
  C  C252  1  0.27790000  0.58830000  0.69500000  1.0
  C  C253  1  0.29250000  0.68250000  0.66360000  1.0
  C  C254  1  0.28930000  0.84570000  0.60410000  1.0
  C  C255  1  0.34370000  0.82360000  0.62300000  1.0
  C  C256  1  0.34670000  0.73010000  0.65660000  1.0
  C  C257  1  0.27110000  0.93440000  0.57120000  1.0
  C  C258  1  0.15230000  0.68730000  0.00150000  1.0
  C  C259  1  0.11940000  0.59990000  0.02430000  1.0
  C  C260  1  0.10090000  0.58520000  0.08030000  1.0
  C  C261  1  0.07000000  0.49280000  0.08700000  1.0
  C  C262  1  0.06340000  0.43620000  0.03670000  1.0
  C  C263  1  0.03150000  0.33780000  0.02590000  1.0
  C  C264  1  0.97440000  0.17090000  0.03580000  1.0
  C  C265  1  0.98710000  0.19690000  0.97980000  1.0
  C  C266  1  0.02000000  0.29160000  0.97420000  1.0
  C  C267  1  0.94350000  0.08020000  0.05800000  1.0
  C  C268  1  0.94260000  0.04040000  0.11240000  1.0
  C  C269  1  0.90840000  0.94700000  0.11810000  1.0
  C  C270  1  0.88430000  0.91850000  0.06670000  1.0
  C  C271  1  0.84920000  0.82580000  0.05380000  1.0
  C  C272  1  0.78410000  0.42770000  0.12560000  1.0
  C  C273  1  0.80060000  0.33710000  0.15870000  1.0
  C  C274  1  0.79970000  0.17270000  0.21530000  1.0
  C  C275  1  0.85410000  0.21780000  0.21120000  1.0
  C  C276  1  0.85380000  0.31160000  0.17920000  1.0
  C  C277  1  0.78080000  0.07820000  0.24660000  1.0
  C  C278  1  0.72570000  0.04560000  0.25960000  1.0
  C  C279  1  0.72360000  0.95160000  0.29190000  1.0
  C  C280  1  0.77790000  0.91170000  0.30500000  1.0
  C  C281  1  0.79250000  0.81750000  0.33640000  1.0
  C  C282  1  0.78930000  0.65430000  0.39590000  1.0
  C  C283  1  0.84370000  0.67640000  0.37700000  1.0
  C  C284  1  0.84670000  0.76990000  0.34340000  1.0
  C  C285  1  0.77110000  0.56560000  0.42880000  1.0
  C  C286  1  0.65230000  0.81270000  0.99850000  1.0
  C  C287  1  0.61940000  0.90010000  0.97570000  1.0
  C  C288  1  0.60090000  0.91480000  0.91970000  1.0
  C  C289  1  0.57000000  0.00720000  0.91300000  1.0
  C  C290  1  0.56340000  0.06380000  0.96330000  1.0
  C  C291  1  0.53150000  0.16220000  0.97410000  1.0
  C  C292  1  0.47440000  0.32910000  0.96420000  1.0
  C  C293  1  0.48710000  0.30310000  0.02020000  1.0
  C  C294  1  0.52000000  0.20840000  0.02580000  1.0
  C  C295  1  0.44350000  0.41980000  0.94200000  1.0
  C  C296  1  0.44260000  0.45960000  0.88760000  1.0
  C  C297  1  0.40840000  0.55300000  0.88190000  1.0
  C  C298  1  0.38430000  0.58150000  0.93330000  1.0
  C  C299  1  0.34920000  0.67420000  0.94620000  1.0
  C  C300  1  0.71590000  0.57230000  0.62560000  1.0
  C  C301  1  0.69940000  0.66290000  0.65870000  1.0
  C  C302  1  0.70030000  0.82730000  0.71530000  1.0
  C  C303  1  0.64590000  0.78220000  0.71120000  1.0
  C  C304  1  0.64620000  0.68840000  0.67920000  1.0
  C  C305  1  0.71920000  0.92180000  0.74660000  1.0
  C  C306  1  0.77430000  0.95440000  0.75960000  1.0
  C  C307  1  0.77640000  0.04840000  0.79190000  1.0
  C  C308  1  0.72210000  0.08830000  0.80500000  1.0
  C  C309  1  0.70750000  0.18250000  0.83640000  1.0
  C  C310  1  0.71070000  0.34570000  0.89590000  1.0
  C  C311  1  0.65630000  0.32360000  0.87700000  1.0
  C  C312  1  0.65330000  0.23010000  0.84340000  1.0
  C  C313  1  0.72890000  0.43440000  0.92880000  1.0
  C  C314  1  0.84770000  0.18730000  0.49850000  1.0
  C  C315  1  0.88060000  0.09990000  0.47570000  1.0
  C  C316  1  0.89910000  0.08520000  0.41970000  1.0
  C  C317  1  0.93000000  0.99280000  0.41300000  1.0
  C  C318  1  0.93660000  0.93620000  0.46330000  1.0
  C  C319  1  0.96850000  0.83780000  0.47410000  1.0
  C  C320  1  0.02560000  0.67090000  0.46420000  1.0
  C  C321  1  0.01290000  0.69690000  0.52020000  1.0
  C  C322  1  0.98000000  0.79160000  0.52580000  1.0
  C  C323  1  0.05650000  0.58020000  0.44200000  1.0
  C  C324  1  0.05740000  0.54040000  0.38760000  1.0
  C  C325  1  0.09160000  0.44700000  0.38190000  1.0
  C  C326  1  0.11570000  0.41850000  0.43330000  1.0
  C  C327  1  0.15080000  0.32580000  0.44620000  1.0
  S  S328  1  0.74824000  0.25431000  0.67837000  1.0
  S  S329  1  0.83192000  0.50861000  0.77557000  1.0
  S  S330  1  0.73886000  0.75280000  0.87308000  1.0
  S  S331  1  0.59818000  0.49870000  0.52039000  1.0
  S  S332  1  0.50303000  0.26560000  0.41699000  1.0
  S  S333  1  0.40225000  0.00437000  0.48830000  1.0
  S  S334  1  0.75176000  0.74569000  0.17837000  1.0
  S  S335  1  0.66808000  0.49139000  0.27557000  1.0
  S  S336  1  0.76114000  0.24720000  0.37308000  1.0
  S  S337  1  0.90182000  0.50130000  0.02039000  1.0
  S  S338  1  0.99697000  0.73440000  0.91699000  1.0
  S  S339  1  0.09775000  0.99563000  0.98830000  1.0
  S  S340  1  0.25176000  0.75431000  0.82163000  1.0
  S  S341  1  0.16808000  0.00861000  0.72443000  1.0
  S  S342  1  0.26114000  0.25280000  0.62692000  1.0
  S  S343  1  0.40182000  0.99870000  0.97961000  1.0
  S  S344  1  0.49697000  0.76560000  0.08301000  1.0
  S  S345  1  0.59775000  0.50437000  0.01170000  1.0
  S  S346  1  0.24824000  0.24569000  0.32163000  1.0
  S  S347  1  0.33192000  0.99139000  0.22443000  1.0
  S  S348  1  0.23886000  0.74720000  0.12692000  1.0
  S  S349  1  0.09818000  0.00130000  0.47961000  1.0
  S  S350  1  0.00303000  0.23440000  0.58301000  1.0
  S  S351  1  0.90225000  0.49563000  0.51170000  1.0
  S  S352  1  0.25176000  0.74569000  0.32163000  1.0
  S  S353  1  0.16808000  0.49139000  0.22443000  1.0
  S  S354  1  0.26114000  0.24720000  0.12692000  1.0
  S  S355  1  0.40182000  0.50130000  0.47961000  1.0
  S  S356  1  0.49697000  0.73440000  0.58301000  1.0
  S  S357  1  0.59775000  0.99563000  0.51170000  1.0
  S  S358  1  0.24824000  0.25431000  0.82163000  1.0
  S  S359  1  0.33192000  0.50861000  0.72443000  1.0
  S  S360  1  0.23886000  0.75280000  0.62692000  1.0
  S  S361  1  0.09818000  0.49870000  0.97961000  1.0
  S  S362  1  0.00303000  0.26560000  0.08301000  1.0
  S  S363  1  0.90225000  0.00437000  0.01170000  1.0
  S  S364  1  0.74824000  0.24569000  0.17837000  1.0
  S  S365  1  0.83192000  0.99139000  0.27557000  1.0
  S  S366  1  0.73886000  0.74720000  0.37308000  1.0
  S  S367  1  0.59818000  0.00130000  0.02039000  1.0
  S  S368  1  0.50303000  0.23440000  0.91699000  1.0
  S  S369  1  0.40225000  0.49563000  0.98830000  1.0
  S  S370  1  0.75176000  0.75431000  0.67837000  1.0
  S  S371  1  0.66808000  0.00861000  0.77557000  1.0
  S  S372  1  0.76114000  0.25280000  0.87308000  1.0
  S  S373  1  0.90182000  0.99870000  0.52039000  1.0
  S  S374  1  0.99697000  0.76560000  0.41699000  1.0
  S  S375  1  0.09775000  0.50437000  0.48830000  1.0
  N  N376  1  0.76910000  0.00170000  0.59960000  1.0
  N  N377  1  0.75730000  0.00630000  0.95560000  1.0
  N  N378  1  0.67860000  0.75690000  0.51650000  1.0
  N  N379  1  0.32210000  0.75420000  0.45780000  1.0
  N  N380  1  0.73090000  0.99830000  0.09960000  1.0
  N  N381  1  0.74270000  0.99370000  0.45560000  1.0
  N  N382  1  0.82140000  0.24310000  0.01650000  1.0
  N  N383  1  0.17790000  0.24580000  0.95780000  1.0
  N  N384  1  0.23090000  0.50170000  0.90040000  1.0
  N  N385  1  0.24270000  0.50630000  0.54440000  1.0
  N  N386  1  0.32140000  0.25690000  0.98350000  1.0
  N  N387  1  0.67790000  0.25420000  0.04220000  1.0
  N  N388  1  0.26910000  0.49830000  0.40040000  1.0
  N  N389  1  0.25730000  0.49370000  0.04440000  1.0
  N  N390  1  0.17860000  0.74310000  0.48350000  1.0
  N  N391  1  0.82210000  0.74580000  0.54220000  1.0
  N  N392  1  0.23090000  0.99830000  0.40040000  1.0
  N  N393  1  0.24270000  0.99370000  0.04440000  1.0
  N  N394  1  0.32140000  0.24310000  0.48350000  1.0
  N  N395  1  0.67790000  0.24580000  0.54220000  1.0
  N  N396  1  0.26910000  0.00170000  0.90040000  1.0
  N  N397  1  0.25730000  0.00630000  0.54440000  1.0
  N  N398  1  0.17860000  0.75690000  0.98350000  1.0
  N  N399  1  0.82210000  0.75420000  0.04220000  1.0
  N  N400  1  0.76910000  0.49830000  0.09960000  1.0
  N  N401  1  0.75730000  0.49370000  0.45560000  1.0
  N  N402  1  0.67860000  0.74310000  0.01650000  1.0
  N  N403  1  0.32210000  0.74580000  0.95780000  1.0
  N  N404  1  0.73090000  0.50170000  0.59960000  1.0
  N  N405  1  0.74270000  0.50630000  0.95560000  1.0
  N  N406  1  0.82140000  0.25690000  0.51650000  1.0
  N  N407  1  0.17790000  0.25420000  0.45780000  1.0
