# generated using pymatgen
data_KCo2Cu2SiH20W10C24(N4O17)2
_symmetry_space_group_name_H-M   'P 1'
_cell_length_a   24.58000000
_cell_length_b   10.44540000
_cell_length_c   22.47770000
_cell_angle_alpha   90.00000000
_cell_angle_beta   98.32200000
_cell_angle_gamma   90.00000000
_symmetry_Int_Tables_number   1
_chemical_formula_structural   KCo2Cu2SiH20W10C24(N4O17)2
_chemical_formula_sum   'K4 Co8 Cu8 Si4 H80 W40 C96 N32 O136'
_cell_volume   5710.33493479
_cell_formula_units_Z   4
loop_
 _symmetry_equiv_pos_site_id
 _symmetry_equiv_pos_as_xyz
  1  'x, y, z'
loop_
 _atom_site_type_symbol
 _atom_site_label
 _atom_site_symmetry_multiplicity
 _atom_site_fract_x
 _atom_site_fract_y
 _atom_site_fract_z
 _atom_site_occupancy
  K  K0  1  0.50000000  0.17620000  0.25000000  1.0
  K  K1  1  0.00000000  0.67620000  0.25000000  1.0
  K  K2  1  0.50000000  0.82380000  0.75000000  1.0
  K  K3  1  0.00000000  0.32380000  0.75000000  1.0
  Co  Co4  1  0.41040000  0.44076000  0.29176000  1.0
  Co  Co5  1  0.40607000  0.91184000  0.28033000  1.0
  Co  Co6  1  0.91040000  0.94076000  0.29176000  1.0
  Co  Co7  1  0.90607000  0.41184000  0.28033000  1.0
  Co  Co8  1  0.58960000  0.55924000  0.70824000  1.0
  Co  Co9  1  0.59393000  0.08816000  0.71967000  1.0
  Co  Co10  1  0.08960000  0.05924000  0.70824000  1.0
  Co  Co11  1  0.09393000  0.58816000  0.71967000  1.0
  Cu  Cu12  1  0.43555000  0.17184000  0.02987000  1.0
  Cu  Cu13  1  0.93555000  0.67184000  0.02987000  1.0
  Cu  Cu14  1  0.56445000  0.17184000  0.47013000  1.0
  Cu  Cu15  1  0.06445000  0.67184000  0.47013000  1.0
  Cu  Cu16  1  0.56445000  0.82816000  0.97013000  1.0
  Cu  Cu17  1  0.06445000  0.32816000  0.97013000  1.0
  Cu  Cu18  1  0.43555000  0.82816000  0.52987000  1.0
  Cu  Cu19  1  0.93555000  0.32816000  0.52987000  1.0
  Si  Si20  1  0.50000000  0.67910000  0.25000000  1.0
  Si  Si21  1  0.00000000  0.17910000  0.25000000  1.0
  Si  Si22  1  0.50000000  0.32090000  0.75000000  1.0
  Si  Si23  1  0.00000000  0.82090000  0.75000000  1.0
  H  H24  1  0.33620000  0.02230000  0.07030000  1.0
  H  H25  1  0.24670000  0.13330000  0.91620000  1.0
  H  H26  1  0.33870000  0.23150000  0.92180000  1.0
  H  H27  1  0.17130000  0.08160000  0.96450000  1.0
  H  H28  1  0.27550000  0.85250000  0.06980000  1.0
  H  H29  1  0.03340000  0.86080000  0.02260000  1.0
  H  H30  1  0.13440000  0.57320000  0.07360000  1.0
  H  H31  1  0.04000000  0.49470000  0.06860000  1.0
  H  H32  1  0.09980000  0.95440000  0.98420000  1.0
  H  H33  1  0.20450000  0.72890000  0.08950000  1.0
  H  H34  1  0.83620000  0.52230000  0.07030000  1.0
  H  H35  1  0.74670000  0.63330000  0.91620000  1.0
  H  H36  1  0.83870000  0.73150000  0.92180000  1.0
  H  H37  1  0.67130000  0.58160000  0.96450000  1.0
  H  H38  1  0.77550000  0.35250000  0.06980000  1.0
  H  H39  1  0.53340000  0.36080000  0.02260000  1.0
  H  H40  1  0.63440000  0.07320000  0.07360000  1.0
  H  H41  1  0.54000000  0.99470000  0.06860000  1.0
  H  H42  1  0.59980000  0.45440000  0.98420000  1.0
  H  H43  1  0.70450000  0.22890000  0.08950000  1.0
  H  H44  1  0.66380000  0.02230000  0.42970000  1.0
  H  H45  1  0.75330000  0.13330000  0.58380000  1.0
  H  H46  1  0.66130000  0.23150000  0.57820000  1.0
  H  H47  1  0.82870000  0.08160000  0.53550000  1.0
  H  H48  1  0.72450000  0.85250000  0.43020000  1.0
  H  H49  1  0.96660000  0.86080000  0.47740000  1.0
  H  H50  1  0.86560000  0.57320000  0.42640000  1.0
  H  H51  1  0.96000000  0.49470000  0.43140000  1.0
  H  H52  1  0.90020000  0.95440000  0.51580000  1.0
  H  H53  1  0.79550000  0.72890000  0.41050000  1.0
  H  H54  1  0.16380000  0.52230000  0.42970000  1.0
  H  H55  1  0.25330000  0.63330000  0.58380000  1.0
  H  H56  1  0.16130000  0.73150000  0.57820000  1.0
  H  H57  1  0.32870000  0.58160000  0.53550000  1.0
  H  H58  1  0.22450000  0.35250000  0.43020000  1.0
  H  H59  1  0.46660000  0.36080000  0.47740000  1.0
  H  H60  1  0.36560000  0.07320000  0.42640000  1.0
  H  H61  1  0.46000000  0.99470000  0.43140000  1.0
  H  H62  1  0.40020000  0.45440000  0.51580000  1.0
  H  H63  1  0.29550000  0.22890000  0.41050000  1.0
  H  H64  1  0.66380000  0.97770000  0.92970000  1.0
  H  H65  1  0.75330000  0.86670000  0.08380000  1.0
  H  H66  1  0.66130000  0.76850000  0.07820000  1.0
  H  H67  1  0.82870000  0.91840000  0.03550000  1.0
  H  H68  1  0.72450000  0.14750000  0.93020000  1.0
  H  H69  1  0.96660000  0.13920000  0.97740000  1.0
  H  H70  1  0.86560000  0.42680000  0.92640000  1.0
  H  H71  1  0.96000000  0.50530000  0.93140000  1.0
  H  H72  1  0.90020000  0.04560000  0.01580000  1.0
  H  H73  1  0.79550000  0.27110000  0.91050000  1.0
  H  H74  1  0.16380000  0.47770000  0.92970000  1.0
  H  H75  1  0.25330000  0.36670000  0.08380000  1.0
  H  H76  1  0.16130000  0.26850000  0.07820000  1.0
  H  H77  1  0.32870000  0.41840000  0.03550000  1.0
  H  H78  1  0.22450000  0.64750000  0.93020000  1.0
  H  H79  1  0.46660000  0.63920000  0.97740000  1.0
  H  H80  1  0.36560000  0.92680000  0.92640000  1.0
  H  H81  1  0.46000000  0.00530000  0.93140000  1.0
  H  H82  1  0.40020000  0.54560000  0.01580000  1.0
  H  H83  1  0.29550000  0.77110000  0.91050000  1.0
  H  H84  1  0.33620000  0.97770000  0.57030000  1.0
  H  H85  1  0.24670000  0.86670000  0.41620000  1.0
  H  H86  1  0.33870000  0.76850000  0.42180000  1.0
  H  H87  1  0.17130000  0.91840000  0.46450000  1.0
  H  H88  1  0.27550000  0.14750000  0.56980000  1.0
  H  H89  1  0.03340000  0.13920000  0.52260000  1.0
  H  H90  1  0.13440000  0.42680000  0.57360000  1.0
  H  H91  1  0.04000000  0.50530000  0.56860000  1.0
  H  H92  1  0.09980000  0.04560000  0.48420000  1.0
  H  H93  1  0.20450000  0.27110000  0.58950000  1.0
  H  H94  1  0.83620000  0.47770000  0.57030000  1.0
  H  H95  1  0.74670000  0.36670000  0.41620000  1.0
  H  H96  1  0.83870000  0.26850000  0.42180000  1.0
  H  H97  1  0.67130000  0.41840000  0.46450000  1.0
  H  H98  1  0.77550000  0.64750000  0.56980000  1.0
  H  H99  1  0.53340000  0.63920000  0.52260000  1.0
  H  H100  1  0.63440000  0.92680000  0.57360000  1.0
  H  H101  1  0.54000000  0.00530000  0.56860000  1.0
  H  H102  1  0.59980000  0.54560000  0.48420000  1.0
  H  H103  1  0.70450000  0.77110000  0.58950000  1.0
  W  W104  1  0.36112000  0.68690000  0.17895000  1.0
  W  W105  1  0.54480000  0.66486000  0.10821000  1.0
  W  W106  1  0.45818000  0.43756000  0.14310000  1.0
  W  W107  1  0.44853000  0.91431000  0.14627000  1.0
  W  W108  1  0.58960000  0.44076000  0.20824000  1.0
  W  W109  1  0.59393000  0.91184000  0.21967000  1.0
  W  W110  1  0.86112000  0.18690000  0.17895000  1.0
  W  W111  1  0.04480000  0.16486000  0.10821000  1.0
  W  W112  1  0.95818000  0.93756000  0.14310000  1.0
  W  W113  1  0.94853000  0.41431000  0.14627000  1.0
  W  W114  1  0.08960000  0.94076000  0.20824000  1.0
  W  W115  1  0.09393000  0.41184000  0.21967000  1.0
  W  W116  1  0.63888000  0.68690000  0.32105000  1.0
  W  W117  1  0.45520000  0.66486000  0.39179000  1.0
  W  W118  1  0.54182000  0.43756000  0.35690000  1.0
  W  W119  1  0.55147000  0.91431000  0.35373000  1.0
  W  W120  1  0.13888000  0.18690000  0.32105000  1.0
  W  W121  1  0.95520000  0.16486000  0.39179000  1.0
  W  W122  1  0.04182000  0.93756000  0.35690000  1.0
  W  W123  1  0.05147000  0.41431000  0.35373000  1.0
  W  W124  1  0.63888000  0.31310000  0.82105000  1.0
  W  W125  1  0.45520000  0.33514000  0.89179000  1.0
  W  W126  1  0.54182000  0.56244000  0.85690000  1.0
  W  W127  1  0.55147000  0.08569000  0.85373000  1.0
  W  W128  1  0.41040000  0.55924000  0.79176000  1.0
  W  W129  1  0.40607000  0.08816000  0.78033000  1.0
  W  W130  1  0.13888000  0.81310000  0.82105000  1.0
  W  W131  1  0.95520000  0.83514000  0.89179000  1.0
  W  W132  1  0.04182000  0.06244000  0.85690000  1.0
  W  W133  1  0.05147000  0.58569000  0.85373000  1.0
  W  W134  1  0.91040000  0.05924000  0.79176000  1.0
  W  W135  1  0.90607000  0.58816000  0.78033000  1.0
  W  W136  1  0.36112000  0.31310000  0.67895000  1.0
  W  W137  1  0.54480000  0.33514000  0.60821000  1.0
  W  W138  1  0.45818000  0.56244000  0.64310000  1.0
  W  W139  1  0.44853000  0.08569000  0.64627000  1.0
  W  W140  1  0.86112000  0.81310000  0.67895000  1.0
  W  W141  1  0.04480000  0.83514000  0.60821000  1.0
  W  W142  1  0.95818000  0.06244000  0.64310000  1.0
  W  W143  1  0.94853000  0.58569000  0.64627000  1.0
  C  C144  1  0.32550000  0.06150000  0.03330000  1.0
  C  C145  1  0.27560000  0.12340000  0.94740000  1.0
  C  C146  1  0.32690000  0.17810000  0.95050000  1.0
  C  C147  1  0.23110000  0.97710000  0.01360000  1.0
  C  C148  1  0.17790000  0.00980000  0.98890000  1.0
  C  C149  1  0.23990000  0.87220000  0.05210000  1.0
  C  C150  1  0.04670000  0.78010000  0.03460000  1.0
  C  C151  1  0.10250000  0.62100000  0.06280000  1.0
  C  C152  1  0.05040000  0.57760000  0.06000000  1.0
  C  C153  1  0.14470000  0.82810000  0.03820000  1.0
  C  C154  1  0.13550000  0.93420000  0.00110000  1.0
  C  C155  1  0.19790000  0.79900000  0.06400000  1.0
  C  C156  1  0.82550000  0.56150000  0.03330000  1.0
  C  C157  1  0.77560000  0.62340000  0.94740000  1.0
  C  C158  1  0.82690000  0.67810000  0.95050000  1.0
  C  C159  1  0.73110000  0.47710000  0.01360000  1.0
  C  C160  1  0.67790000  0.50980000  0.98890000  1.0
  C  C161  1  0.73990000  0.37220000  0.05210000  1.0
  C  C162  1  0.54670000  0.28010000  0.03460000  1.0
  C  C163  1  0.60250000  0.12100000  0.06280000  1.0
  C  C164  1  0.55040000  0.07760000  0.06000000  1.0
  C  C165  1  0.64470000  0.32810000  0.03820000  1.0
  C  C166  1  0.63550000  0.43420000  0.00110000  1.0
  C  C167  1  0.69790000  0.29900000  0.06400000  1.0
  C  C168  1  0.67450000  0.06150000  0.46670000  1.0
  C  C169  1  0.72440000  0.12340000  0.55260000  1.0
  C  C170  1  0.67310000  0.17810000  0.54950000  1.0
  C  C171  1  0.76890000  0.97710000  0.48640000  1.0
  C  C172  1  0.82210000  0.00980000  0.51110000  1.0
  C  C173  1  0.76010000  0.87220000  0.44790000  1.0
  C  C174  1  0.95330000  0.78010000  0.46540000  1.0
  C  C175  1  0.89750000  0.62100000  0.43720000  1.0
  C  C176  1  0.94960000  0.57760000  0.44000000  1.0
  C  C177  1  0.85530000  0.82810000  0.46180000  1.0
  C  C178  1  0.86450000  0.93420000  0.49890000  1.0
  C  C179  1  0.80210000  0.79900000  0.43600000  1.0
  C  C180  1  0.17450000  0.56150000  0.46670000  1.0
  C  C181  1  0.22440000  0.62340000  0.55260000  1.0
  C  C182  1  0.17310000  0.67810000  0.54950000  1.0
  C  C183  1  0.26890000  0.47710000  0.48640000  1.0
  C  C184  1  0.32210000  0.50980000  0.51110000  1.0
  C  C185  1  0.26010000  0.37220000  0.44790000  1.0
  C  C186  1  0.45330000  0.28010000  0.46540000  1.0
  C  C187  1  0.39750000  0.12100000  0.43720000  1.0
  C  C188  1  0.44960000  0.07760000  0.44000000  1.0
  C  C189  1  0.35530000  0.32810000  0.46180000  1.0
  C  C190  1  0.36450000  0.43420000  0.49890000  1.0
  C  C191  1  0.30210000  0.29900000  0.43600000  1.0
  C  C192  1  0.67450000  0.93850000  0.96670000  1.0
  C  C193  1  0.72440000  0.87660000  0.05260000  1.0
  C  C194  1  0.67310000  0.82190000  0.04950000  1.0
  C  C195  1  0.76890000  0.02290000  0.98640000  1.0
  C  C196  1  0.82210000  0.99020000  0.01110000  1.0
  C  C197  1  0.76010000  0.12780000  0.94790000  1.0
  C  C198  1  0.95330000  0.21990000  0.96540000  1.0
  C  C199  1  0.89750000  0.37900000  0.93720000  1.0
  C  C200  1  0.94960000  0.42240000  0.94000000  1.0
  C  C201  1  0.85530000  0.17190000  0.96180000  1.0
  C  C202  1  0.86450000  0.06580000  0.99890000  1.0
  C  C203  1  0.80210000  0.20100000  0.93600000  1.0
  C  C204  1  0.17450000  0.43850000  0.96670000  1.0
  C  C205  1  0.22440000  0.37660000  0.05260000  1.0
  C  C206  1  0.17310000  0.32190000  0.04950000  1.0
  C  C207  1  0.26890000  0.52290000  0.98640000  1.0
  C  C208  1  0.32210000  0.49020000  0.01110000  1.0
  C  C209  1  0.26010000  0.62780000  0.94790000  1.0
  C  C210  1  0.45330000  0.71990000  0.96540000  1.0
  C  C211  1  0.39750000  0.87900000  0.93720000  1.0
  C  C212  1  0.44960000  0.92240000  0.94000000  1.0
  C  C213  1  0.35530000  0.67190000  0.96180000  1.0
  C  C214  1  0.36450000  0.56580000  0.99890000  1.0
  C  C215  1  0.30210000  0.70100000  0.93600000  1.0
  C  C216  1  0.32550000  0.93850000  0.53330000  1.0
  C  C217  1  0.27560000  0.87660000  0.44740000  1.0
  C  C218  1  0.32690000  0.82190000  0.45050000  1.0
  C  C219  1  0.23110000  0.02290000  0.51360000  1.0
  C  C220  1  0.17790000  0.99020000  0.48890000  1.0
  C  C221  1  0.23990000  0.12780000  0.55210000  1.0
  C  C222  1  0.04670000  0.21990000  0.53460000  1.0
  C  C223  1  0.10250000  0.37900000  0.56280000  1.0
  C  C224  1  0.05040000  0.42240000  0.56000000  1.0
  C  C225  1  0.14470000  0.17190000  0.53820000  1.0
  C  C226  1  0.13550000  0.06580000  0.50110000  1.0
  C  C227  1  0.19790000  0.20100000  0.56400000  1.0
  C  C228  1  0.82550000  0.43850000  0.53330000  1.0
  C  C229  1  0.77560000  0.37660000  0.44740000  1.0
  C  C230  1  0.82690000  0.32190000  0.45050000  1.0
  C  C231  1  0.73110000  0.52290000  0.51360000  1.0
  C  C232  1  0.67790000  0.49020000  0.48890000  1.0
  C  C233  1  0.73990000  0.62780000  0.55210000  1.0
  C  C234  1  0.54670000  0.71990000  0.53460000  1.0
  C  C235  1  0.60250000  0.87900000  0.56280000  1.0
  C  C236  1  0.55040000  0.92240000  0.56000000  1.0
  C  C237  1  0.64470000  0.67190000  0.53820000  1.0
  C  C238  1  0.63550000  0.56580000  0.50110000  1.0
  C  C239  1  0.69790000  0.70100000  0.56400000  1.0
  N  N240  1  0.35780000  0.13980000  0.00360000  1.0
  N  N241  1  0.27480000  0.05130000  0.99850000  1.0
  N  N242  1  0.01590000  0.67590000  0.04260000  1.0
  N  N243  1  0.10030000  0.74610000  0.04700000  1.0
  N  N244  1  0.85780000  0.63980000  0.00360000  1.0
  N  N245  1  0.77480000  0.55130000  0.99850000  1.0
  N  N246  1  0.51590000  0.17590000  0.04260000  1.0
  N  N247  1  0.60030000  0.24610000  0.04700000  1.0
  N  N248  1  0.64220000  0.13980000  0.49640000  1.0
  N  N249  1  0.72520000  0.05130000  0.50150000  1.0
  N  N250  1  0.98410000  0.67590000  0.45740000  1.0
  N  N251  1  0.89970000  0.74610000  0.45300000  1.0
  N  N252  1  0.14220000  0.63980000  0.49640000  1.0
  N  N253  1  0.22520000  0.55130000  0.50150000  1.0
  N  N254  1  0.48410000  0.17590000  0.45740000  1.0
  N  N255  1  0.39970000  0.24610000  0.45300000  1.0
  N  N256  1  0.64220000  0.86020000  0.99640000  1.0
  N  N257  1  0.72520000  0.94870000  0.00150000  1.0
  N  N258  1  0.98410000  0.32410000  0.95740000  1.0
  N  N259  1  0.89970000  0.25390000  0.95300000  1.0
  N  N260  1  0.14220000  0.36020000  0.99640000  1.0
  N  N261  1  0.22520000  0.44870000  0.00150000  1.0
  N  N262  1  0.48410000  0.82410000  0.95740000  1.0
  N  N263  1  0.39970000  0.75390000  0.95300000  1.0
  N  N264  1  0.35780000  0.86020000  0.50360000  1.0
  N  N265  1  0.27480000  0.94870000  0.49850000  1.0
  N  N266  1  0.01590000  0.32410000  0.54260000  1.0
  N  N267  1  0.10030000  0.25390000  0.54700000  1.0
  N  N268  1  0.85780000  0.36020000  0.50360000  1.0
  N  N269  1  0.77480000  0.44870000  0.49850000  1.0
  N  N270  1  0.51590000  0.82410000  0.54260000  1.0
  N  N271  1  0.60030000  0.75390000  0.54700000  1.0
  O  O272  1  0.38170000  0.82060000  0.12620000  1.0
  O  O273  1  0.34680000  0.81840000  0.23380000  1.0
  O  O274  1  0.58760000  0.78240000  0.15740000  1.0
  O  O275  1  0.41640000  0.00390000  0.20680000  1.0
  O  O276  1  0.36990000  0.57040000  0.24530000  1.0
  O  O277  1  0.59550000  0.53390000  0.13550000  1.0
  O  O278  1  0.47340000  0.35120000  0.33510000  1.0
  O  O279  1  0.48460000  0.78260000  0.10840000  1.0
  O  O280  1  0.51800000  0.58930000  0.19610000  1.0
  O  O281  1  0.43770000  0.39120000  0.21820000  1.0
  O  O282  1  0.49210000  0.53220000  0.08340000  1.0
  O  O283  1  0.51860000  0.96130000  0.18540000  1.0
  O  O284  1  0.44810000  0.76900000  0.22240000  1.0
  O  O285  1  0.40500000  0.57090000  0.14030000  1.0
  O  O286  1  0.43830000  0.02800000  0.08930000  1.0
  O  O287  1  0.56320000  0.70410000  0.03900000  1.0
  O  O288  1  0.42260000  0.32610000  0.09650000  1.0
  O  O289  1  0.88170000  0.32060000  0.12620000  1.0
  O  O290  1  0.84680000  0.31840000  0.23380000  1.0
  O  O291  1  0.08760000  0.28240000  0.15740000  1.0
  O  O292  1  0.91640000  0.50390000  0.20680000  1.0
  O  O293  1  0.86990000  0.07040000  0.24530000  1.0
  O  O294  1  0.09550000  0.03390000  0.13550000  1.0
  O  O295  1  0.97340000  0.85120000  0.33510000  1.0
  O  O296  1  0.98460000  0.28260000  0.10840000  1.0
  O  O297  1  0.01800000  0.08930000  0.19610000  1.0
  O  O298  1  0.93770000  0.89120000  0.21820000  1.0
  O  O299  1  0.99210000  0.03220000  0.08340000  1.0
  O  O300  1  0.01860000  0.46130000  0.18540000  1.0
  O  O301  1  0.94810000  0.26900000  0.22240000  1.0
  O  O302  1  0.90500000  0.07090000  0.14030000  1.0
  O  O303  1  0.93830000  0.52800000  0.08930000  1.0
  O  O304  1  0.06320000  0.20410000  0.03900000  1.0
  O  O305  1  0.92260000  0.82610000  0.09650000  1.0
  O  O306  1  0.61830000  0.82060000  0.37380000  1.0
  O  O307  1  0.65320000  0.81840000  0.26620000  1.0
  O  O308  1  0.41240000  0.78240000  0.34260000  1.0
  O  O309  1  0.58360000  0.00390000  0.29320000  1.0
  O  O310  1  0.63010000  0.57040000  0.25470000  1.0
  O  O311  1  0.40450000  0.53390000  0.36450000  1.0
  O  O312  1  0.52660000  0.35120000  0.16490000  1.0
  O  O313  1  0.51540000  0.78260000  0.39160000  1.0
  O  O314  1  0.48200000  0.58930000  0.30390000  1.0
  O  O315  1  0.56230000  0.39120000  0.28180000  1.0
  O  O316  1  0.50790000  0.53220000  0.41660000  1.0
  O  O317  1  0.48140000  0.96130000  0.31460000  1.0
  O  O318  1  0.55190000  0.76900000  0.27760000  1.0
  O  O319  1  0.59500000  0.57090000  0.35970000  1.0
  O  O320  1  0.56170000  0.02800000  0.41070000  1.0
  O  O321  1  0.43680000  0.70410000  0.46100000  1.0
  O  O322  1  0.57740000  0.32610000  0.40350000  1.0
  O  O323  1  0.11830000  0.32060000  0.37380000  1.0
  O  O324  1  0.15320000  0.31840000  0.26620000  1.0
  O  O325  1  0.91240000  0.28240000  0.34260000  1.0
  O  O326  1  0.08360000  0.50390000  0.29320000  1.0
  O  O327  1  0.13010000  0.07040000  0.25470000  1.0
  O  O328  1  0.90450000  0.03390000  0.36450000  1.0
  O  O329  1  0.02660000  0.85120000  0.16490000  1.0
  O  O330  1  0.01540000  0.28260000  0.39160000  1.0
  O  O331  1  0.98200000  0.08930000  0.30390000  1.0
  O  O332  1  0.06230000  0.89120000  0.28180000  1.0
  O  O333  1  0.00790000  0.03220000  0.41660000  1.0
  O  O334  1  0.98140000  0.46130000  0.31460000  1.0
  O  O335  1  0.05190000  0.26900000  0.27760000  1.0
  O  O336  1  0.09500000  0.07090000  0.35970000  1.0
  O  O337  1  0.06170000  0.52800000  0.41070000  1.0
  O  O338  1  0.93680000  0.20410000  0.46100000  1.0
  O  O339  1  0.07740000  0.82610000  0.40350000  1.0
  O  O340  1  0.61830000  0.17940000  0.87380000  1.0
  O  O341  1  0.65320000  0.18160000  0.76620000  1.0
  O  O342  1  0.41240000  0.21760000  0.84260000  1.0
  O  O343  1  0.58360000  0.99610000  0.79320000  1.0
  O  O344  1  0.63010000  0.42960000  0.75470000  1.0
  O  O345  1  0.40450000  0.46610000  0.86450000  1.0
  O  O346  1  0.52660000  0.64880000  0.66490000  1.0
  O  O347  1  0.51540000  0.21740000  0.89160000  1.0
  O  O348  1  0.48200000  0.41070000  0.80390000  1.0
  O  O349  1  0.56230000  0.60880000  0.78180000  1.0
  O  O350  1  0.50790000  0.46780000  0.91660000  1.0
  O  O351  1  0.48140000  0.03870000  0.81460000  1.0
  O  O352  1  0.55190000  0.23100000  0.77760000  1.0
  O  O353  1  0.59500000  0.42910000  0.85970000  1.0
  O  O354  1  0.56170000  0.97200000  0.91070000  1.0
  O  O355  1  0.43680000  0.29590000  0.96100000  1.0
  O  O356  1  0.57740000  0.67390000  0.90350000  1.0
  O  O357  1  0.11830000  0.67940000  0.87380000  1.0
  O  O358  1  0.15320000  0.68160000  0.76620000  1.0
  O  O359  1  0.91240000  0.71760000  0.84260000  1.0
  O  O360  1  0.08360000  0.49610000  0.79320000  1.0
  O  O361  1  0.13010000  0.92960000  0.75470000  1.0
  O  O362  1  0.90450000  0.96610000  0.86450000  1.0
  O  O363  1  0.02660000  0.14880000  0.66490000  1.0
  O  O364  1  0.01540000  0.71740000  0.89160000  1.0
  O  O365  1  0.98200000  0.91070000  0.80390000  1.0
  O  O366  1  0.06230000  0.10880000  0.78180000  1.0
  O  O367  1  0.00790000  0.96780000  0.91660000  1.0
  O  O368  1  0.98140000  0.53870000  0.81460000  1.0
  O  O369  1  0.05190000  0.73100000  0.77760000  1.0
  O  O370  1  0.09500000  0.92910000  0.85970000  1.0
  O  O371  1  0.06170000  0.47200000  0.91070000  1.0
  O  O372  1  0.93680000  0.79590000  0.96100000  1.0
  O  O373  1  0.07740000  0.17390000  0.90350000  1.0
  O  O374  1  0.38170000  0.17940000  0.62620000  1.0
  O  O375  1  0.34680000  0.18160000  0.73380000  1.0
  O  O376  1  0.58760000  0.21760000  0.65740000  1.0
  O  O377  1  0.41640000  0.99610000  0.70680000  1.0
  O  O378  1  0.36990000  0.42960000  0.74530000  1.0
  O  O379  1  0.59550000  0.46610000  0.63550000  1.0
  O  O380  1  0.47340000  0.64880000  0.83510000  1.0
  O  O381  1  0.48460000  0.21740000  0.60840000  1.0
  O  O382  1  0.51800000  0.41070000  0.69610000  1.0
  O  O383  1  0.43770000  0.60880000  0.71820000  1.0
  O  O384  1  0.49210000  0.46780000  0.58340000  1.0
  O  O385  1  0.51860000  0.03870000  0.68540000  1.0
  O  O386  1  0.44810000  0.23100000  0.72240000  1.0
  O  O387  1  0.40500000  0.42910000  0.64030000  1.0
  O  O388  1  0.43830000  0.97200000  0.58930000  1.0
  O  O389  1  0.56320000  0.29590000  0.53900000  1.0
  O  O390  1  0.42260000  0.67390000  0.59650000  1.0
  O  O391  1  0.88170000  0.67940000  0.62620000  1.0
  O  O392  1  0.84680000  0.68160000  0.73380000  1.0
  O  O393  1  0.08760000  0.71760000  0.65740000  1.0
  O  O394  1  0.91640000  0.49610000  0.70680000  1.0
  O  O395  1  0.86990000  0.92960000  0.74530000  1.0
  O  O396  1  0.09550000  0.96610000  0.63550000  1.0
  O  O397  1  0.97340000  0.14880000  0.83510000  1.0
  O  O398  1  0.98460000  0.71740000  0.60840000  1.0
  O  O399  1  0.01800000  0.91070000  0.69610000  1.0
  O  O400  1  0.93770000  0.10880000  0.71820000  1.0
  O  O401  1  0.99210000  0.96780000  0.58340000  1.0
  O  O402  1  0.01860000  0.53870000  0.68540000  1.0
  O  O403  1  0.94810000  0.73100000  0.72240000  1.0
  O  O404  1  0.90500000  0.92910000  0.64030000  1.0
  O  O405  1  0.93830000  0.47200000  0.58930000  1.0
  O  O406  1  0.06320000  0.79590000  0.53900000  1.0
  O  O407  1  0.92260000  0.17390000  0.59650000  1.0
