# generated using pymatgen
data_AgH12(C3N)6
_symmetry_space_group_name_H-M   'P 1'
_cell_length_a   22.07800000
_cell_length_b   16.38170000
_cell_length_c   25.63110000
_cell_angle_alpha   90.00000000
_cell_angle_beta   115.33400000
_cell_angle_gamma   90.00000000
_symmetry_Int_Tables_number   1
_chemical_formula_structural   AgH12(C3N)6
_chemical_formula_sum   'Ag16 H192 C288 N96'
_cell_volume   8378.61266690
_cell_formula_units_Z   16
loop_
 _symmetry_equiv_pos_site_id
 _symmetry_equiv_pos_as_xyz
  1  'x, y, z'
loop_
 _atom_site_type_symbol
 _atom_site_label
 _atom_site_symmetry_multiplicity
 _atom_site_fract_x
 _atom_site_fract_y
 _atom_site_fract_z
 _atom_site_occupancy
  Ag  Ag0  1  0.34412000  0.54225000  0.36793000  1.0
  Ag  Ag1  1  0.32288000  0.24792000  0.86728000  1.0
  Ag  Ag2  1  0.84412000  0.04225000  0.36793000  1.0
  Ag  Ag3  1  0.82288000  0.74792000  0.86728000  1.0
  Ag  Ag4  1  0.65588000  0.54225000  0.13207000  1.0
  Ag  Ag5  1  0.67712000  0.24792000  0.63272000  1.0
  Ag  Ag6  1  0.15588000  0.04225000  0.13207000  1.0
  Ag  Ag7  1  0.17712000  0.74792000  0.63272000  1.0
  Ag  Ag8  1  0.65588000  0.45775000  0.63207000  1.0
  Ag  Ag9  1  0.67712000  0.75208000  0.13272000  1.0
  Ag  Ag10  1  0.15588000  0.95775000  0.63207000  1.0
  Ag  Ag11  1  0.17712000  0.25208000  0.13272000  1.0
  Ag  Ag12  1  0.34412000  0.45775000  0.86793000  1.0
  Ag  Ag13  1  0.32288000  0.75208000  0.36728000  1.0
  Ag  Ag14  1  0.84412000  0.95775000  0.86793000  1.0
  Ag  Ag15  1  0.82288000  0.25208000  0.36728000  1.0
  H  H16  1  0.21280000  0.44250000  0.34880000  1.0
  H  H17  1  0.05480000  0.20800000  0.38980000  1.0
  H  H18  1  0.69960000  0.84300000  0.85210000  1.0
  H  H19  1  0.79950000  0.86570000  0.04960000  1.0
  H  H20  1  0.42390000  0.18440000  0.98520000  1.0
  H  H21  1  0.04370000  0.16860000  0.53990000  1.0
  H  H22  1  0.32040000  0.41140000  0.54480000  1.0
  H  H23  1  0.52340000  0.11830000  0.03650000  1.0
  H  H24  1  0.94470000  0.10260000  0.49010000  1.0
  H  H25  1  0.63490000  0.06290000  0.16100000  1.0
  H  H26  1  0.36800000  0.48290000  0.49440000  1.0
  H  H27  1  0.85160000  0.97810000  0.26360000  1.0
  H  H28  1  0.16200000  0.36700000  0.39380000  1.0
  H  H29  1  0.95620000  0.13720000  0.34440000  1.0
  H  H30  1  0.84950000  0.79630000  0.00030000  1.0
  H  H31  1  0.68910000  0.07720000  0.26000000  1.0
  H  H32  1  0.32370000  0.33510000  0.66840000  1.0
  H  H33  1  0.52100000  0.04430000  0.88610000  1.0
  H  H34  1  0.42350000  0.11730000  0.83920000  1.0
  H  H35  1  0.22690000  0.16970000  0.75520000  1.0
  H  H36  1  0.17690000  0.18060000  0.65610000  1.0
  H  H37  1  0.36770000  0.32060000  0.76690000  1.0
  H  H38  1  0.64420000  0.91370000  0.89640000  1.0
  H  H39  1  0.80240000  0.95920000  0.16530000  1.0
  H  H40  1  0.71280000  0.94250000  0.34880000  1.0
  H  H41  1  0.55480000  0.70800000  0.38980000  1.0
  H  H42  1  0.19960000  0.34300000  0.85210000  1.0
  H  H43  1  0.29950000  0.36570000  0.04960000  1.0
  H  H44  1  0.92390000  0.68440000  0.98520000  1.0
  H  H45  1  0.54370000  0.66860000  0.53990000  1.0
  H  H46  1  0.82040000  0.91140000  0.54480000  1.0
  H  H47  1  0.02340000  0.61830000  0.03650000  1.0
  H  H48  1  0.44470000  0.60260000  0.49010000  1.0
  H  H49  1  0.13490000  0.56290000  0.16100000  1.0
  H  H50  1  0.86800000  0.98290000  0.49440000  1.0
  H  H51  1  0.35160000  0.47810000  0.26360000  1.0
  H  H52  1  0.66200000  0.86700000  0.39380000  1.0
  H  H53  1  0.45620000  0.63720000  0.34440000  1.0
  H  H54  1  0.34950000  0.29630000  0.00030000  1.0
  H  H55  1  0.18910000  0.57720000  0.26000000  1.0
  H  H56  1  0.82370000  0.83510000  0.66840000  1.0
  H  H57  1  0.02100000  0.54430000  0.88610000  1.0
  H  H58  1  0.92350000  0.61730000  0.83920000  1.0
  H  H59  1  0.72690000  0.66970000  0.75520000  1.0
  H  H60  1  0.67690000  0.68060000  0.65610000  1.0
  H  H61  1  0.86770000  0.82060000  0.76690000  1.0
  H  H62  1  0.14420000  0.41370000  0.89640000  1.0
  H  H63  1  0.30240000  0.45920000  0.16530000  1.0
  H  H64  1  0.78720000  0.44250000  0.15120000  1.0
  H  H65  1  0.94520000  0.20800000  0.11020000  1.0
  H  H66  1  0.30040000  0.84300000  0.64790000  1.0
  H  H67  1  0.20050000  0.86570000  0.45040000  1.0
  H  H68  1  0.57610000  0.18440000  0.51480000  1.0
  H  H69  1  0.95630000  0.16860000  0.96010000  1.0
  H  H70  1  0.67960000  0.41140000  0.95520000  1.0
  H  H71  1  0.47660000  0.11830000  0.46350000  1.0
  H  H72  1  0.05530000  0.10260000  0.00990000  1.0
  H  H73  1  0.36510000  0.06290000  0.33900000  1.0
  H  H74  1  0.63200000  0.48290000  0.00560000  1.0
  H  H75  1  0.14840000  0.97810000  0.23640000  1.0
  H  H76  1  0.83800000  0.36700000  0.10620000  1.0
  H  H77  1  0.04380000  0.13720000  0.15560000  1.0
  H  H78  1  0.15050000  0.79630000  0.49970000  1.0
  H  H79  1  0.31090000  0.07720000  0.24000000  1.0
  H  H80  1  0.67630000  0.33510000  0.83160000  1.0
  H  H81  1  0.47900000  0.04430000  0.61390000  1.0
  H  H82  1  0.57650000  0.11730000  0.66080000  1.0
  H  H83  1  0.77310000  0.16970000  0.74480000  1.0
  H  H84  1  0.82310000  0.18060000  0.84390000  1.0
  H  H85  1  0.63230000  0.32060000  0.73310000  1.0
  H  H86  1  0.35580000  0.91370000  0.60360000  1.0
  H  H87  1  0.19760000  0.95920000  0.33470000  1.0
  H  H88  1  0.28720000  0.94250000  0.15120000  1.0
  H  H89  1  0.44520000  0.70800000  0.11020000  1.0
  H  H90  1  0.80040000  0.34300000  0.64790000  1.0
  H  H91  1  0.70050000  0.36570000  0.45040000  1.0
  H  H92  1  0.07610000  0.68440000  0.51480000  1.0
  H  H93  1  0.45630000  0.66860000  0.96010000  1.0
  H  H94  1  0.17960000  0.91140000  0.95520000  1.0
  H  H95  1  0.97660000  0.61830000  0.46350000  1.0
  H  H96  1  0.55530000  0.60260000  0.00990000  1.0
  H  H97  1  0.86510000  0.56290000  0.33900000  1.0
  H  H98  1  0.13200000  0.98290000  0.00560000  1.0
  H  H99  1  0.64840000  0.47810000  0.23640000  1.0
  H  H100  1  0.33800000  0.86700000  0.10620000  1.0
  H  H101  1  0.54380000  0.63720000  0.15560000  1.0
  H  H102  1  0.65050000  0.29630000  0.49970000  1.0
  H  H103  1  0.81090000  0.57720000  0.24000000  1.0
  H  H104  1  0.17630000  0.83510000  0.83160000  1.0
  H  H105  1  0.97900000  0.54430000  0.61390000  1.0
  H  H106  1  0.07650000  0.61730000  0.66080000  1.0
  H  H107  1  0.27310000  0.66970000  0.74480000  1.0
  H  H108  1  0.32310000  0.68060000  0.84390000  1.0
  H  H109  1  0.13230000  0.82060000  0.73310000  1.0
  H  H110  1  0.85580000  0.41370000  0.60360000  1.0
  H  H111  1  0.69760000  0.45920000  0.33470000  1.0
  H  H112  1  0.78720000  0.55750000  0.65120000  1.0
  H  H113  1  0.94520000  0.79200000  0.61020000  1.0
  H  H114  1  0.30040000  0.15700000  0.14790000  1.0
  H  H115  1  0.20050000  0.13430000  0.95040000  1.0
  H  H116  1  0.57610000  0.81560000  0.01480000  1.0
  H  H117  1  0.95630000  0.83140000  0.46010000  1.0
  H  H118  1  0.67960000  0.58860000  0.45520000  1.0
  H  H119  1  0.47660000  0.88170000  0.96350000  1.0
  H  H120  1  0.05530000  0.89740000  0.50990000  1.0
  H  H121  1  0.36510000  0.93710000  0.83900000  1.0
  H  H122  1  0.63200000  0.51710000  0.50560000  1.0
  H  H123  1  0.14840000  0.02190000  0.73640000  1.0
  H  H124  1  0.83800000  0.63300000  0.60620000  1.0
  H  H125  1  0.04380000  0.86280000  0.65560000  1.0
  H  H126  1  0.15050000  0.20370000  0.99970000  1.0
  H  H127  1  0.31090000  0.92280000  0.74000000  1.0
  H  H128  1  0.67630000  0.66490000  0.33160000  1.0
  H  H129  1  0.47900000  0.95570000  0.11390000  1.0
  H  H130  1  0.57650000  0.88270000  0.16080000  1.0
  H  H131  1  0.77310000  0.83030000  0.24480000  1.0
  H  H132  1  0.82310000  0.81940000  0.34390000  1.0
  H  H133  1  0.63230000  0.67940000  0.23310000  1.0
  H  H134  1  0.35580000  0.08630000  0.10360000  1.0
  H  H135  1  0.19760000  0.04080000  0.83470000  1.0
  H  H136  1  0.28720000  0.05750000  0.65120000  1.0
  H  H137  1  0.44520000  0.29200000  0.61020000  1.0
  H  H138  1  0.80040000  0.65700000  0.14790000  1.0
  H  H139  1  0.70050000  0.63430000  0.95040000  1.0
  H  H140  1  0.07610000  0.31560000  0.01480000  1.0
  H  H141  1  0.45630000  0.33140000  0.46010000  1.0
  H  H142  1  0.17960000  0.08860000  0.45520000  1.0
  H  H143  1  0.97660000  0.38170000  0.96350000  1.0
  H  H144  1  0.55530000  0.39740000  0.50990000  1.0
  H  H145  1  0.86510000  0.43710000  0.83900000  1.0
  H  H146  1  0.13200000  0.01710000  0.50560000  1.0
  H  H147  1  0.64840000  0.52190000  0.73640000  1.0
  H  H148  1  0.33800000  0.13300000  0.60620000  1.0
  H  H149  1  0.54380000  0.36280000  0.65560000  1.0
  H  H150  1  0.65050000  0.70370000  0.99970000  1.0
  H  H151  1  0.81090000  0.42280000  0.74000000  1.0
  H  H152  1  0.17630000  0.16490000  0.33160000  1.0
  H  H153  1  0.97900000  0.45570000  0.11390000  1.0
  H  H154  1  0.07650000  0.38270000  0.16080000  1.0
  H  H155  1  0.27310000  0.33030000  0.24480000  1.0
  H  H156  1  0.32310000  0.31940000  0.34390000  1.0
  H  H157  1  0.13230000  0.17940000  0.23310000  1.0
  H  H158  1  0.85580000  0.58630000  0.10360000  1.0
  H  H159  1  0.69760000  0.54080000  0.83470000  1.0
  H  H160  1  0.21280000  0.55750000  0.84880000  1.0
  H  H161  1  0.05480000  0.79200000  0.88980000  1.0
  H  H162  1  0.69960000  0.15700000  0.35210000  1.0
  H  H163  1  0.79950000  0.13430000  0.54960000  1.0
  H  H164  1  0.42390000  0.81560000  0.48520000  1.0
  H  H165  1  0.04370000  0.83140000  0.03990000  1.0
  H  H166  1  0.32040000  0.58860000  0.04480000  1.0
  H  H167  1  0.52340000  0.88170000  0.53650000  1.0
  H  H168  1  0.94470000  0.89740000  0.99010000  1.0
  H  H169  1  0.63490000  0.93710000  0.66100000  1.0
  H  H170  1  0.36800000  0.51710000  0.99440000  1.0
  H  H171  1  0.85160000  0.02190000  0.76360000  1.0
  H  H172  1  0.16200000  0.63300000  0.89380000  1.0
  H  H173  1  0.95620000  0.86280000  0.84440000  1.0
  H  H174  1  0.84950000  0.20370000  0.50030000  1.0
  H  H175  1  0.68910000  0.92280000  0.76000000  1.0
  H  H176  1  0.32370000  0.66490000  0.16840000  1.0
  H  H177  1  0.52100000  0.95570000  0.38610000  1.0
  H  H178  1  0.42350000  0.88270000  0.33920000  1.0
  H  H179  1  0.22690000  0.83030000  0.25520000  1.0
  H  H180  1  0.17690000  0.81940000  0.15610000  1.0
  H  H181  1  0.36770000  0.67940000  0.26690000  1.0
  H  H182  1  0.64420000  0.08630000  0.39640000  1.0
  H  H183  1  0.80240000  0.04080000  0.66530000  1.0
  H  H184  1  0.71280000  0.05750000  0.84880000  1.0
  H  H185  1  0.55480000  0.29200000  0.88980000  1.0
  H  H186  1  0.19960000  0.65700000  0.35210000  1.0
  H  H187  1  0.29950000  0.63430000  0.54960000  1.0
  H  H188  1  0.92390000  0.31560000  0.48520000  1.0
  H  H189  1  0.54370000  0.33140000  0.03990000  1.0
  H  H190  1  0.82040000  0.08860000  0.04480000  1.0
  H  H191  1  0.02340000  0.38170000  0.53650000  1.0
  H  H192  1  0.44470000  0.39740000  0.99010000  1.0
  H  H193  1  0.13490000  0.43710000  0.66100000  1.0
  H  H194  1  0.86800000  0.01710000  0.99440000  1.0
  H  H195  1  0.35160000  0.52190000  0.76360000  1.0
  H  H196  1  0.66200000  0.13300000  0.89380000  1.0
  H  H197  1  0.45620000  0.36280000  0.84440000  1.0
  H  H198  1  0.34950000  0.70370000  0.50030000  1.0
  H  H199  1  0.18910000  0.42280000  0.76000000  1.0
  H  H200  1  0.82370000  0.16490000  0.16840000  1.0
  H  H201  1  0.02100000  0.45570000  0.38610000  1.0
  H  H202  1  0.92350000  0.38270000  0.33920000  1.0
  H  H203  1  0.72690000  0.33030000  0.25520000  1.0
  H  H204  1  0.67690000  0.31940000  0.15610000  1.0
  H  H205  1  0.86770000  0.17940000  0.26690000  1.0
  H  H206  1  0.14420000  0.58630000  0.39640000  1.0
  H  H207  1  0.30240000  0.54080000  0.66530000  1.0
  C  C208  1  0.12410000  0.24300000  0.50248000  1.0
  C  C209  1  0.23510000  0.43530000  0.38860000  1.0
  C  C210  1  0.03310000  0.18730000  0.41100000  1.0
  C  C211  1  0.71980000  0.84790000  0.89210000  1.0
  C  C212  1  0.06000000  0.19800000  0.47024000  1.0
  C  C213  1  0.59780000  0.03020000  0.00107000  1.0
  C  C214  1  0.77840000  0.86210000  0.00960000  1.0
  C  C215  1  0.44400000  0.15680000  0.96510000  1.0
  C  C216  1  0.02630000  0.16420000  0.50000000  1.0
  C  C217  1  0.29800000  0.41570000  0.50490000  1.0
  C  C218  1  0.50350000  0.11670000  0.99630000  1.0
  C  C219  1  0.24350000  0.26250000  0.65138000  1.0
  C  C220  1  0.20970000  0.27300000  0.58766000  1.0
  C  C221  1  0.53320000  0.07390000  0.96689000  1.0
  C  C222  1  0.20540000  0.32760000  0.50521000  1.0
  C  C223  1  0.96700000  0.12440000  0.46960000  1.0
  C  C224  1  0.68250000  0.94810000  0.00698000  1.0
  C  C225  1  0.67880000  0.04470000  0.18100000  1.0
  C  C226  1  0.71580000  0.89860000  0.97800000  1.0
  C  C227  1  0.68020000  0.99810000  0.08838000  1.0
  C  C228  1  0.32600000  0.45940000  0.47410000  1.0
  C  C229  1  0.80750000  0.99490000  0.24280000  1.0
  C  C230  1  0.23600000  0.37870000  0.47480000  1.0
  C  C231  1  0.20400000  0.38990000  0.41530000  1.0
  C  C232  1  0.97340000  0.14510000  0.38410000  1.0
  C  C233  1  0.71230000  0.00810000  0.15180000  1.0
  C  C234  1  0.80800000  0.82060000  0.97940000  1.0
  C  C235  1  0.71200000  0.05350000  0.24070000  1.0
  C  C236  1  0.30220000  0.30250000  0.68500000  1.0
  C  C237  1  0.50250000  0.07320000  0.90710000  1.0
  C  C238  1  0.44350000  0.11670000  0.87930000  1.0
  C  C239  1  0.24570000  0.20460000  0.73750000  1.0
  C  C240  1  0.21530000  0.21060000  0.67790000  1.0
  C  C241  1  0.32840000  0.29290000  0.74440000  1.0
  C  C242  1  0.68600000  0.89070000  0.91840000  1.0
  C  C243  1  0.77840000  0.98320000  0.18350000  1.0
  C  C244  1  0.62410000  0.74300000  0.50248000  1.0
  C  C245  1  0.73510000  0.93530000  0.38860000  1.0
  C  C246  1  0.53310000  0.68730000  0.41100000  1.0
  C  C247  1  0.21980000  0.34790000  0.89210000  1.0
  C  C248  1  0.56000000  0.69800000  0.47024000  1.0
  C  C249  1  0.09780000  0.53020000  0.00107000  1.0
  C  C250  1  0.27840000  0.36210000  0.00960000  1.0
  C  C251  1  0.94400000  0.65680000  0.96510000  1.0
  C  C252  1  0.52630000  0.66420000  0.50000000  1.0
  C  C253  1  0.79800000  0.91570000  0.50490000  1.0
  C  C254  1  0.00350000  0.61670000  0.99630000  1.0
  C  C255  1  0.74350000  0.76250000  0.65138000  1.0
  C  C256  1  0.70970000  0.77300000  0.58766000  1.0
  C  C257  1  0.03320000  0.57390000  0.96689000  1.0
  C  C258  1  0.70540000  0.82760000  0.50521000  1.0
  C  C259  1  0.46700000  0.62440000  0.46960000  1.0
  C  C260  1  0.18250000  0.44810000  0.00698000  1.0
  C  C261  1  0.17880000  0.54470000  0.18100000  1.0
  C  C262  1  0.21580000  0.39860000  0.97800000  1.0
  C  C263  1  0.18020000  0.49810000  0.08838000  1.0
  C  C264  1  0.82600000  0.95940000  0.47410000  1.0
  C  C265  1  0.30750000  0.49490000  0.24280000  1.0
  C  C266  1  0.73600000  0.87870000  0.47480000  1.0
  C  C267  1  0.70400000  0.88990000  0.41530000  1.0
  C  C268  1  0.47340000  0.64510000  0.38410000  1.0
  C  C269  1  0.21230000  0.50810000  0.15180000  1.0
  C  C270  1  0.30800000  0.32060000  0.97940000  1.0
  C  C271  1  0.21200000  0.55350000  0.24070000  1.0
  C  C272  1  0.80220000  0.80250000  0.68500000  1.0
  C  C273  1  0.00250000  0.57320000  0.90710000  1.0
  C  C274  1  0.94350000  0.61670000  0.87930000  1.0
  C  C275  1  0.74570000  0.70460000  0.73750000  1.0
  C  C276  1  0.71530000  0.71060000  0.67790000  1.0
  C  C277  1  0.82840000  0.79290000  0.74440000  1.0
  C  C278  1  0.18600000  0.39070000  0.91840000  1.0
  C  C279  1  0.27840000  0.48320000  0.18350000  1.0
  C  C280  1  0.87590000  0.24300000  0.99752000  1.0
  C  C281  1  0.76490000  0.43530000  0.11140000  1.0
  C  C282  1  0.96690000  0.18730000  0.08900000  1.0
  C  C283  1  0.28020000  0.84790000  0.60790000  1.0
  C  C284  1  0.94000000  0.19800000  0.02976000  1.0
  C  C285  1  0.40220000  0.03020000  0.49893000  1.0
  C  C286  1  0.22160000  0.86210000  0.49040000  1.0
  C  C287  1  0.55600000  0.15680000  0.53490000  1.0
  C  C288  1  0.97370000  0.16420000  0.00000000  1.0
  C  C289  1  0.70200000  0.41570000  0.99510000  1.0
  C  C290  1  0.49650000  0.11670000  0.50370000  1.0
  C  C291  1  0.75650000  0.26250000  0.84862000  1.0
  C  C292  1  0.79030000  0.27300000  0.91234000  1.0
  C  C293  1  0.46680000  0.07390000  0.53311000  1.0
  C  C294  1  0.79460000  0.32760000  0.99479000  1.0
  C  C295  1  0.03300000  0.12440000  0.03040000  1.0
  C  C296  1  0.31750000  0.94810000  0.49302000  1.0
  C  C297  1  0.32120000  0.04470000  0.31900000  1.0
  C  C298  1  0.28420000  0.89860000  0.52200000  1.0
  C  C299  1  0.31980000  0.99810000  0.41162000  1.0
  C  C300  1  0.67400000  0.45940000  0.02590000  1.0
  C  C301  1  0.19250000  0.99490000  0.25720000  1.0
  C  C302  1  0.76400000  0.37870000  0.02520000  1.0
  C  C303  1  0.79600000  0.38990000  0.08470000  1.0
  C  C304  1  0.02660000  0.14510000  0.11590000  1.0
  C  C305  1  0.28770000  0.00810000  0.34820000  1.0
  C  C306  1  0.19200000  0.82060000  0.52060000  1.0
  C  C307  1  0.28800000  0.05350000  0.25930000  1.0
  C  C308  1  0.69780000  0.30250000  0.81500000  1.0
  C  C309  1  0.49750000  0.07320000  0.59290000  1.0
  C  C310  1  0.55650000  0.11670000  0.62070000  1.0
  C  C311  1  0.75430000  0.20460000  0.76250000  1.0
  C  C312  1  0.78470000  0.21060000  0.82210000  1.0
  C  C313  1  0.67160000  0.29290000  0.75560000  1.0
  C  C314  1  0.31400000  0.89070000  0.58160000  1.0
  C  C315  1  0.22160000  0.98320000  0.31650000  1.0
  C  C316  1  0.37590000  0.74300000  0.99752000  1.0
  C  C317  1  0.26490000  0.93530000  0.11140000  1.0
  C  C318  1  0.46690000  0.68730000  0.08900000  1.0
  C  C319  1  0.78020000  0.34790000  0.60790000  1.0
  C  C320  1  0.44000000  0.69800000  0.02976000  1.0
  C  C321  1  0.90220000  0.53020000  0.49893000  1.0
  C  C322  1  0.72160000  0.36210000  0.49040000  1.0
  C  C323  1  0.05600000  0.65680000  0.53490000  1.0
  C  C324  1  0.47370000  0.66420000  0.00000000  1.0
  C  C325  1  0.20200000  0.91570000  0.99510000  1.0
  C  C326  1  0.99650000  0.61670000  0.50370000  1.0
  C  C327  1  0.25650000  0.76250000  0.84862000  1.0
  C  C328  1  0.29030000  0.77300000  0.91234000  1.0
  C  C329  1  0.96680000  0.57390000  0.53311000  1.0
  C  C330  1  0.29460000  0.82760000  0.99479000  1.0
  C  C331  1  0.53300000  0.62440000  0.03040000  1.0
  C  C332  1  0.81750000  0.44810000  0.49302000  1.0
  C  C333  1  0.82120000  0.54470000  0.31900000  1.0
  C  C334  1  0.78420000  0.39860000  0.52200000  1.0
  C  C335  1  0.81980000  0.49810000  0.41162000  1.0
  C  C336  1  0.17400000  0.95940000  0.02590000  1.0
  C  C337  1  0.69250000  0.49490000  0.25720000  1.0
  C  C338  1  0.26400000  0.87870000  0.02520000  1.0
  C  C339  1  0.29600000  0.88990000  0.08470000  1.0
  C  C340  1  0.52660000  0.64510000  0.11590000  1.0
  C  C341  1  0.78770000  0.50810000  0.34820000  1.0
  C  C342  1  0.69200000  0.32060000  0.52060000  1.0
  C  C343  1  0.78800000  0.55350000  0.25930000  1.0
  C  C344  1  0.19780000  0.80250000  0.81500000  1.0
  C  C345  1  0.99750000  0.57320000  0.59290000  1.0
  C  C346  1  0.05650000  0.61670000  0.62070000  1.0
  C  C347  1  0.25430000  0.70460000  0.76250000  1.0
  C  C348  1  0.28470000  0.71060000  0.82210000  1.0
  C  C349  1  0.17160000  0.79290000  0.75560000  1.0
  C  C350  1  0.81400000  0.39070000  0.58160000  1.0
  C  C351  1  0.72160000  0.48320000  0.31650000  1.0
  C  C352  1  0.87590000  0.75700000  0.49752000  1.0
  C  C353  1  0.76490000  0.56470000  0.61140000  1.0
  C  C354  1  0.96690000  0.81270000  0.58900000  1.0
  C  C355  1  0.28020000  0.15210000  0.10790000  1.0
  C  C356  1  0.94000000  0.80200000  0.52976000  1.0
  C  C357  1  0.40220000  0.96980000  0.99893000  1.0
  C  C358  1  0.22160000  0.13790000  0.99040000  1.0
  C  C359  1  0.55600000  0.84320000  0.03490000  1.0
  C  C360  1  0.97370000  0.83580000  0.50000000  1.0
  C  C361  1  0.70200000  0.58430000  0.49510000  1.0
  C  C362  1  0.49650000  0.88330000  0.00370000  1.0
  C  C363  1  0.75650000  0.73750000  0.34862000  1.0
  C  C364  1  0.79030000  0.72700000  0.41234000  1.0
  C  C365  1  0.46680000  0.92610000  0.03311000  1.0
  C  C366  1  0.79460000  0.67240000  0.49479000  1.0
  C  C367  1  0.03300000  0.87560000  0.53040000  1.0
  C  C368  1  0.31750000  0.05190000  0.99302000  1.0
  C  C369  1  0.32120000  0.95530000  0.81900000  1.0
  C  C370  1  0.28420000  0.10140000  0.02200000  1.0
  C  C371  1  0.31980000  0.00190000  0.91162000  1.0
  C  C372  1  0.67400000  0.54060000  0.52590000  1.0
  C  C373  1  0.19250000  0.00510000  0.75720000  1.0
  C  C374  1  0.76400000  0.62130000  0.52520000  1.0
  C  C375  1  0.79600000  0.61010000  0.58470000  1.0
  C  C376  1  0.02660000  0.85490000  0.61590000  1.0
  C  C377  1  0.28770000  0.99190000  0.84820000  1.0
  C  C378  1  0.19200000  0.17940000  0.02060000  1.0
  C  C379  1  0.28800000  0.94650000  0.75930000  1.0
  C  C380  1  0.69780000  0.69750000  0.31500000  1.0
  C  C381  1  0.49750000  0.92680000  0.09290000  1.0
  C  C382  1  0.55650000  0.88330000  0.12070000  1.0
  C  C383  1  0.75430000  0.79540000  0.26250000  1.0
  C  C384  1  0.78470000  0.78940000  0.32210000  1.0
  C  C385  1  0.67160000  0.70710000  0.25560000  1.0
  C  C386  1  0.31400000  0.10930000  0.08160000  1.0
  C  C387  1  0.22160000  0.01680000  0.81650000  1.0
  C  C388  1  0.37590000  0.25700000  0.49752000  1.0
  C  C389  1  0.26490000  0.06470000  0.61140000  1.0
  C  C390  1  0.46690000  0.31270000  0.58900000  1.0
  C  C391  1  0.78020000  0.65210000  0.10790000  1.0
  C  C392  1  0.44000000  0.30200000  0.52976000  1.0
  C  C393  1  0.90220000  0.46980000  0.99893000  1.0
  C  C394  1  0.72160000  0.63790000  0.99040000  1.0
  C  C395  1  0.05600000  0.34320000  0.03490000  1.0
  C  C396  1  0.47370000  0.33580000  0.50000000  1.0
  C  C397  1  0.20200000  0.08430000  0.49510000  1.0
  C  C398  1  0.99650000  0.38330000  0.00370000  1.0
  C  C399  1  0.25650000  0.23750000  0.34862000  1.0
  C  C400  1  0.29030000  0.22700000  0.41234000  1.0
  C  C401  1  0.96680000  0.42610000  0.03311000  1.0
  C  C402  1  0.29460000  0.17240000  0.49479000  1.0
  C  C403  1  0.53300000  0.37560000  0.53040000  1.0
  C  C404  1  0.81750000  0.55190000  0.99302000  1.0
  C  C405  1  0.82120000  0.45530000  0.81900000  1.0
  C  C406  1  0.78420000  0.60140000  0.02200000  1.0
  C  C407  1  0.81980000  0.50190000  0.91162000  1.0
  C  C408  1  0.17400000  0.04060000  0.52590000  1.0
  C  C409  1  0.69250000  0.50510000  0.75720000  1.0
  C  C410  1  0.26400000  0.12130000  0.52520000  1.0
  C  C411  1  0.29600000  0.11010000  0.58470000  1.0
  C  C412  1  0.52660000  0.35490000  0.61590000  1.0
  C  C413  1  0.78770000  0.49190000  0.84820000  1.0
  C  C414  1  0.69200000  0.67940000  0.02060000  1.0
  C  C415  1  0.78800000  0.44650000  0.75930000  1.0
  C  C416  1  0.19780000  0.19750000  0.31500000  1.0
  C  C417  1  0.99750000  0.42680000  0.09290000  1.0
  C  C418  1  0.05650000  0.38330000  0.12070000  1.0
  C  C419  1  0.25430000  0.29540000  0.26250000  1.0
  C  C420  1  0.28470000  0.28940000  0.32210000  1.0
  C  C421  1  0.17160000  0.20710000  0.25560000  1.0
  C  C422  1  0.81400000  0.60930000  0.08160000  1.0
  C  C423  1  0.72160000  0.51680000  0.81650000  1.0
  C  C424  1  0.12410000  0.75700000  0.00248000  1.0
  C  C425  1  0.23510000  0.56470000  0.88860000  1.0
  C  C426  1  0.03310000  0.81270000  0.91100000  1.0
  C  C427  1  0.71980000  0.15210000  0.39210000  1.0
  C  C428  1  0.06000000  0.80200000  0.97024000  1.0
  C  C429  1  0.59780000  0.96980000  0.50107000  1.0
  C  C430  1  0.77840000  0.13790000  0.50960000  1.0
  C  C431  1  0.44400000  0.84320000  0.46510000  1.0
  C  C432  1  0.02630000  0.83580000  0.00000000  1.0
  C  C433  1  0.29800000  0.58430000  0.00490000  1.0
  C  C434  1  0.50350000  0.88330000  0.49630000  1.0
  C  C435  1  0.24350000  0.73750000  0.15138000  1.0
  C  C436  1  0.20970000  0.72700000  0.08766000  1.0
  C  C437  1  0.53320000  0.92610000  0.46689000  1.0
  C  C438  1  0.20540000  0.67240000  0.00521000  1.0
  C  C439  1  0.96700000  0.87560000  0.96960000  1.0
  C  C440  1  0.68250000  0.05190000  0.50698000  1.0
  C  C441  1  0.67880000  0.95530000  0.68100000  1.0
  C  C442  1  0.71580000  0.10140000  0.47800000  1.0
  C  C443  1  0.68020000  0.00190000  0.58838000  1.0
  C  C444  1  0.32600000  0.54060000  0.97410000  1.0
  C  C445  1  0.80750000  0.00510000  0.74280000  1.0
  C  C446  1  0.23600000  0.62130000  0.97480000  1.0
  C  C447  1  0.20400000  0.61010000  0.91530000  1.0
  C  C448  1  0.97340000  0.85490000  0.88410000  1.0
  C  C449  1  0.71230000  0.99190000  0.65180000  1.0
  C  C450  1  0.80800000  0.17940000  0.47940000  1.0
  C  C451  1  0.71200000  0.94650000  0.74070000  1.0
  C  C452  1  0.30220000  0.69750000  0.18500000  1.0
  C  C453  1  0.50250000  0.92680000  0.40710000  1.0
  C  C454  1  0.44350000  0.88330000  0.37930000  1.0
  C  C455  1  0.24570000  0.79540000  0.23750000  1.0
  C  C456  1  0.21530000  0.78940000  0.17790000  1.0
  C  C457  1  0.32840000  0.70710000  0.24440000  1.0
  C  C458  1  0.68600000  0.10930000  0.41840000  1.0
  C  C459  1  0.77840000  0.01680000  0.68350000  1.0
  C  C460  1  0.62410000  0.25700000  0.00248000  1.0
  C  C461  1  0.73510000  0.06470000  0.88860000  1.0
  C  C462  1  0.53310000  0.31270000  0.91100000  1.0
  C  C463  1  0.21980000  0.65210000  0.39210000  1.0
  C  C464  1  0.56000000  0.30200000  0.97024000  1.0
  C  C465  1  0.09780000  0.46980000  0.50107000  1.0
  C  C466  1  0.27840000  0.63790000  0.50960000  1.0
  C  C467  1  0.94400000  0.34320000  0.46510000  1.0
  C  C468  1  0.52630000  0.33580000  0.00000000  1.0
  C  C469  1  0.79800000  0.08430000  0.00490000  1.0
  C  C470  1  0.00350000  0.38330000  0.49630000  1.0
  C  C471  1  0.74350000  0.23750000  0.15138000  1.0
  C  C472  1  0.70970000  0.22700000  0.08766000  1.0
  C  C473  1  0.03320000  0.42610000  0.46689000  1.0
  C  C474  1  0.70540000  0.17240000  0.00521000  1.0
  C  C475  1  0.46700000  0.37560000  0.96960000  1.0
  C  C476  1  0.18250000  0.55190000  0.50698000  1.0
  C  C477  1  0.17880000  0.45530000  0.68100000  1.0
  C  C478  1  0.21580000  0.60140000  0.47800000  1.0
  C  C479  1  0.18020000  0.50190000  0.58838000  1.0
  C  C480  1  0.82600000  0.04060000  0.97410000  1.0
  C  C481  1  0.30750000  0.50510000  0.74280000  1.0
  C  C482  1  0.73600000  0.12130000  0.97480000  1.0
  C  C483  1  0.70400000  0.11010000  0.91530000  1.0
  C  C484  1  0.47340000  0.35490000  0.88410000  1.0
  C  C485  1  0.21230000  0.49190000  0.65180000  1.0
  C  C486  1  0.30800000  0.67940000  0.47940000  1.0
  C  C487  1  0.21200000  0.44650000  0.74070000  1.0
  C  C488  1  0.80220000  0.19750000  0.18500000  1.0
  C  C489  1  0.00250000  0.42680000  0.40710000  1.0
  C  C490  1  0.94350000  0.38330000  0.37930000  1.0
  C  C491  1  0.74570000  0.29540000  0.23750000  1.0
  C  C492  1  0.71530000  0.28940000  0.17790000  1.0
  C  C493  1  0.82840000  0.20710000  0.24440000  1.0
  C  C494  1  0.18600000  0.60930000  0.41840000  1.0
  C  C495  1  0.27840000  0.51680000  0.68350000  1.0
  N  N496  1  0.93918000  0.11510000  0.41217000  1.0
  N  N497  1  0.29562000  0.46960000  0.41668000  1.0
  N  N498  1  0.30080000  0.24650000  0.77124000  1.0
  N  N499  1  0.14809000  0.28920000  0.47259000  1.0
  N  N500  1  0.23827000  0.32240000  0.56291000  1.0
  N  N501  1  0.15301000  0.23200000  0.55938000  1.0
  N  N502  1  0.41343000  0.15840000  0.90725000  1.0
  N  N503  1  0.78020000  0.81320000  0.92145000  1.0
  N  N504  1  0.77600000  0.02910000  0.27182000  1.0
  N  N505  1  0.62631000  0.98850000  0.97299000  1.0
  N  N506  1  0.71121000  0.95040000  0.06458000  1.0
  N  N507  1  0.62279000  0.03740000  0.05894000  1.0
  N  N508  1  0.43918000  0.61510000  0.41217000  1.0
  N  N509  1  0.79562000  0.96960000  0.41668000  1.0
  N  N510  1  0.80080000  0.74650000  0.77124000  1.0
  N  N511  1  0.64809000  0.78920000  0.47259000  1.0
  N  N512  1  0.73827000  0.82240000  0.56291000  1.0
  N  N513  1  0.65301000  0.73200000  0.55938000  1.0
  N  N514  1  0.91343000  0.65840000  0.90725000  1.0
  N  N515  1  0.28020000  0.31320000  0.92145000  1.0
  N  N516  1  0.27600000  0.52910000  0.27182000  1.0
  N  N517  1  0.12631000  0.48850000  0.97299000  1.0
  N  N518  1  0.21121000  0.45040000  0.06458000  1.0
  N  N519  1  0.12279000  0.53740000  0.05894000  1.0
  N  N520  1  0.06082000  0.11510000  0.08783000  1.0
  N  N521  1  0.70438000  0.46960000  0.08332000  1.0
  N  N522  1  0.69920000  0.24650000  0.72876000  1.0
  N  N523  1  0.85191000  0.28920000  0.02741000  1.0
  N  N524  1  0.76173000  0.32240000  0.93709000  1.0
  N  N525  1  0.84699000  0.23200000  0.94062000  1.0
  N  N526  1  0.58657000  0.15840000  0.59275000  1.0
  N  N527  1  0.21980000  0.81320000  0.57855000  1.0
  N  N528  1  0.22400000  0.02910000  0.22818000  1.0
  N  N529  1  0.37369000  0.98850000  0.52701000  1.0
  N  N530  1  0.28879000  0.95040000  0.43542000  1.0
  N  N531  1  0.37721000  0.03740000  0.44106000  1.0
  N  N532  1  0.56082000  0.61510000  0.08783000  1.0
  N  N533  1  0.20438000  0.96960000  0.08332000  1.0
  N  N534  1  0.19920000  0.74650000  0.72876000  1.0
  N  N535  1  0.35191000  0.78920000  0.02741000  1.0
  N  N536  1  0.26173000  0.82240000  0.93709000  1.0
  N  N537  1  0.34699000  0.73200000  0.94062000  1.0
  N  N538  1  0.08657000  0.65840000  0.59275000  1.0
  N  N539  1  0.71980000  0.31320000  0.57855000  1.0
  N  N540  1  0.72400000  0.52910000  0.22818000  1.0
  N  N541  1  0.87369000  0.48850000  0.52701000  1.0
  N  N542  1  0.78879000  0.45040000  0.43542000  1.0
  N  N543  1  0.87721000  0.53740000  0.44106000  1.0
  N  N544  1  0.06082000  0.88490000  0.58783000  1.0
  N  N545  1  0.70438000  0.53040000  0.58332000  1.0
  N  N546  1  0.69920000  0.75350000  0.22876000  1.0
  N  N547  1  0.85191000  0.71080000  0.52741000  1.0
  N  N548  1  0.76173000  0.67760000  0.43709000  1.0
  N  N549  1  0.84699000  0.76800000  0.44062000  1.0
  N  N550  1  0.58657000  0.84160000  0.09275000  1.0
  N  N551  1  0.21980000  0.18680000  0.07855000  1.0
  N  N552  1  0.22400000  0.97090000  0.72818000  1.0
  N  N553  1  0.37369000  0.01150000  0.02701000  1.0
  N  N554  1  0.28879000  0.04960000  0.93542000  1.0
  N  N555  1  0.37721000  0.96260000  0.94106000  1.0
  N  N556  1  0.56082000  0.38490000  0.58783000  1.0
  N  N557  1  0.20438000  0.03040000  0.58332000  1.0
  N  N558  1  0.19920000  0.25350000  0.22876000  1.0
  N  N559  1  0.35191000  0.21080000  0.52741000  1.0
  N  N560  1  0.26173000  0.17760000  0.43709000  1.0
  N  N561  1  0.34699000  0.26800000  0.44062000  1.0
  N  N562  1  0.08657000  0.34160000  0.09275000  1.0
  N  N563  1  0.71980000  0.68680000  0.07855000  1.0
  N  N564  1  0.72400000  0.47090000  0.72818000  1.0
  N  N565  1  0.87369000  0.51150000  0.02701000  1.0
  N  N566  1  0.78879000  0.54960000  0.93542000  1.0
  N  N567  1  0.87721000  0.46260000  0.94106000  1.0
  N  N568  1  0.93918000  0.88490000  0.91217000  1.0
  N  N569  1  0.29562000  0.53040000  0.91668000  1.0
  N  N570  1  0.30080000  0.75350000  0.27124000  1.0
  N  N571  1  0.14809000  0.71080000  0.97259000  1.0
  N  N572  1  0.23827000  0.67760000  0.06291000  1.0
  N  N573  1  0.15301000  0.76800000  0.05938000  1.0
  N  N574  1  0.41343000  0.84160000  0.40725000  1.0
  N  N575  1  0.78020000  0.18680000  0.42145000  1.0
  N  N576  1  0.77600000  0.97090000  0.77182000  1.0
  N  N577  1  0.62631000  0.01150000  0.47299000  1.0
  N  N578  1  0.71121000  0.04960000  0.56458000  1.0
  N  N579  1  0.62279000  0.96260000  0.55894000  1.0
  N  N580  1  0.43918000  0.38490000  0.91217000  1.0
  N  N581  1  0.79562000  0.03040000  0.91668000  1.0
  N  N582  1  0.80080000  0.25350000  0.27124000  1.0
  N  N583  1  0.64809000  0.21080000  0.97259000  1.0
  N  N584  1  0.73827000  0.17760000  0.06291000  1.0
  N  N585  1  0.65301000  0.26800000  0.05938000  1.0
  N  N586  1  0.91343000  0.34160000  0.40725000  1.0
  N  N587  1  0.28020000  0.68680000  0.42145000  1.0
  N  N588  1  0.27600000  0.47090000  0.77182000  1.0
  N  N589  1  0.12631000  0.51150000  0.47299000  1.0
  N  N590  1  0.21121000  0.54960000  0.56458000  1.0
  N  N591  1  0.12279000  0.46260000  0.55894000  1.0
