# generated using pymatgen
data_Na5Sm4Cu8H48C48(NO6)8
_symmetry_space_group_name_H-M   'P 1'
_cell_length_a   17.04100000
_cell_length_b   17.04100000
_cell_length_c   25.37100000
_cell_angle_alpha   90.00000000
_cell_angle_beta   90.00000000
_cell_angle_gamma   90.00000000
_symmetry_Int_Tables_number   1
_chemical_formula_structural   Na5Sm4Cu8H48C48(NO6)8
_chemical_formula_sum   'Na10 Sm8 Cu16 H96 C96 N16 O96'
_cell_volume   7367.62882265
_cell_formula_units_Z   2
loop_
 _symmetry_equiv_pos_site_id
 _symmetry_equiv_pos_as_xyz
  1  'x, y, z'
loop_
 _atom_site_type_symbol
 _atom_site_label
 _atom_site_symmetry_multiplicity
 _atom_site_fract_x
 _atom_site_fract_y
 _atom_site_fract_z
 _atom_site_occupancy
  Na  Na0  1  0.23360000  0.19430000  0.11389000  1.0
  Na  Na1  1  0.76640000  0.80570000  0.11389000  1.0
  Na  Na2  1  0.19430000  0.76640000  0.88611000  1.0
  Na  Na3  1  0.80570000  0.23360000  0.88611000  1.0
  Na  Na4  1  0.26640000  0.69430000  0.38611000  1.0
  Na  Na5  1  0.73360000  0.30570000  0.38611000  1.0
  Na  Na6  1  0.30570000  0.26640000  0.61389000  1.0
  Na  Na7  1  0.69430000  0.73360000  0.61389000  1.0
  Na  Na8  1  0.00000000  0.00000000  0.00000000  1.0
  Na  Na9  1  0.50000000  0.50000000  0.50000000  1.0
  Sm  Sm10  1  0.27553000  0.11819000  0.80808000  1.0
  Sm  Sm11  1  0.72447000  0.88181000  0.80808000  1.0
  Sm  Sm12  1  0.11819000  0.72447000  0.19192000  1.0
  Sm  Sm13  1  0.88181000  0.27553000  0.19192000  1.0
  Sm  Sm14  1  0.22447000  0.61819000  0.69192000  1.0
  Sm  Sm15  1  0.77553000  0.38181000  0.69192000  1.0
  Sm  Sm16  1  0.38181000  0.22447000  0.30808000  1.0
  Sm  Sm17  1  0.61819000  0.77553000  0.30808000  1.0
  Cu  Cu18  1  0.12896000  0.37850000  0.16824000  1.0
  Cu  Cu19  1  0.11999000  0.18517000  0.00864000  1.0
  Cu  Cu20  1  0.87104000  0.62150000  0.16824000  1.0
  Cu  Cu21  1  0.88001000  0.81483000  0.00864000  1.0
  Cu  Cu22  1  0.37850000  0.87104000  0.83176000  1.0
  Cu  Cu23  1  0.18517000  0.88001000  0.99136000  1.0
  Cu  Cu24  1  0.62150000  0.12896000  0.83176000  1.0
  Cu  Cu25  1  0.81483000  0.11999000  0.99136000  1.0
  Cu  Cu26  1  0.37104000  0.87850000  0.33176000  1.0
  Cu  Cu27  1  0.38001000  0.68517000  0.49136000  1.0
  Cu  Cu28  1  0.62896000  0.12150000  0.33176000  1.0
  Cu  Cu29  1  0.61999000  0.31483000  0.49136000  1.0
  Cu  Cu30  1  0.12150000  0.37104000  0.66824000  1.0
  Cu  Cu31  1  0.31483000  0.38001000  0.50864000  1.0
  Cu  Cu32  1  0.87850000  0.62896000  0.66824000  1.0
  Cu  Cu33  1  0.68517000  0.61999000  0.50864000  1.0
  H  H34  1  0.34110000  0.90590000  0.69020000  1.0
  H  H35  1  0.27680000  0.86350000  0.72410000  1.0
  H  H36  1  0.36160000  0.75160000  0.71410000  1.0
  H  H37  1  0.41890000  0.73820000  0.76180000  1.0
  H  H38  1  0.46360000  0.92660000  0.71920000  1.0
  H  H39  1  0.48570000  0.83830000  0.70970000  1.0
  H  H40  1  0.03360000  0.37340000  0.00630000  1.0
  H  H41  1  0.12290000  0.38340000  0.99310000  1.0
  H  H42  1  0.99830000  0.26480000  0.91350000  1.0
  H  H43  1  0.96680000  0.30900000  0.96310000  1.0
  H  H44  1  0.10260000  0.30920000  0.89290000  1.0
  H  H45  1  0.17470000  0.32230000  0.93040000  1.0
  H  H46  1  0.65890000  0.09410000  0.69020000  1.0
  H  H47  1  0.72320000  0.13650000  0.72410000  1.0
  H  H48  1  0.63840000  0.24840000  0.71410000  1.0
  H  H49  1  0.58110000  0.26180000  0.76180000  1.0
  H  H50  1  0.53640000  0.07340000  0.71920000  1.0
  H  H51  1  0.51430000  0.16170000  0.70970000  1.0
  H  H52  1  0.96640000  0.62660000  0.00630000  1.0
  H  H53  1  0.87710000  0.61660000  0.99310000  1.0
  H  H54  1  0.00170000  0.73520000  0.91350000  1.0
  H  H55  1  0.03320000  0.69100000  0.96310000  1.0
  H  H56  1  0.89740000  0.69080000  0.89290000  1.0
  H  H57  1  0.82530000  0.67770000  0.93040000  1.0
  H  H58  1  0.90590000  0.65890000  0.30980000  1.0
  H  H59  1  0.86350000  0.72320000  0.27590000  1.0
  H  H60  1  0.75160000  0.63840000  0.28590000  1.0
  H  H61  1  0.73820000  0.58110000  0.23820000  1.0
  H  H62  1  0.92660000  0.53640000  0.28080000  1.0
  H  H63  1  0.83830000  0.51430000  0.29030000  1.0
  H  H64  1  0.37340000  0.96640000  0.99370000  1.0
  H  H65  1  0.38340000  0.87710000  0.00690000  1.0
  H  H66  1  0.26480000  0.00170000  0.08650000  1.0
  H  H67  1  0.30900000  0.03320000  0.03690000  1.0
  H  H68  1  0.30920000  0.89740000  0.10710000  1.0
  H  H69  1  0.32230000  0.82530000  0.06960000  1.0
  H  H70  1  0.09410000  0.34110000  0.30980000  1.0
  H  H71  1  0.13650000  0.27680000  0.27590000  1.0
  H  H72  1  0.24840000  0.36160000  0.28590000  1.0
  H  H73  1  0.26180000  0.41890000  0.23820000  1.0
  H  H74  1  0.07340000  0.46360000  0.28080000  1.0
  H  H75  1  0.16170000  0.48570000  0.29030000  1.0
  H  H76  1  0.62660000  0.03360000  0.99370000  1.0
  H  H77  1  0.61660000  0.12290000  0.00690000  1.0
  H  H78  1  0.73520000  0.99830000  0.08650000  1.0
  H  H79  1  0.69100000  0.96680000  0.03690000  1.0
  H  H80  1  0.69080000  0.10260000  0.10710000  1.0
  H  H81  1  0.67770000  0.17470000  0.06960000  1.0
  H  H82  1  0.15890000  0.40590000  0.80980000  1.0
  H  H83  1  0.22320000  0.36350000  0.77590000  1.0
  H  H84  1  0.13840000  0.25160000  0.78590000  1.0
  H  H85  1  0.08110000  0.23820000  0.73820000  1.0
  H  H86  1  0.03640000  0.42660000  0.78080000  1.0
  H  H87  1  0.01430000  0.33830000  0.79030000  1.0
  H  H88  1  0.46640000  0.87340000  0.49370000  1.0
  H  H89  1  0.37710000  0.88340000  0.50690000  1.0
  H  H90  1  0.50170000  0.76480000  0.58650000  1.0
  H  H91  1  0.53320000  0.80900000  0.53690000  1.0
  H  H92  1  0.39740000  0.80920000  0.60710000  1.0
  H  H93  1  0.32530000  0.82230000  0.56960000  1.0
  H  H94  1  0.84110000  0.59410000  0.80980000  1.0
  H  H95  1  0.77680000  0.63650000  0.77590000  1.0
  H  H96  1  0.86160000  0.74840000  0.78590000  1.0
  H  H97  1  0.91890000  0.76180000  0.73820000  1.0
  H  H98  1  0.96360000  0.57340000  0.78080000  1.0
  H  H99  1  0.98570000  0.66170000  0.79030000  1.0
  H  H100  1  0.53360000  0.12660000  0.49370000  1.0
  H  H101  1  0.62290000  0.11660000  0.50690000  1.0
  H  H102  1  0.49830000  0.23520000  0.58650000  1.0
  H  H103  1  0.46680000  0.19100000  0.53690000  1.0
  H  H104  1  0.60260000  0.19080000  0.60710000  1.0
  H  H105  1  0.67470000  0.17770000  0.56960000  1.0
  H  H106  1  0.59410000  0.15890000  0.19020000  1.0
  H  H107  1  0.63650000  0.22320000  0.22410000  1.0
  H  H108  1  0.74840000  0.13840000  0.21410000  1.0
  H  H109  1  0.76180000  0.08110000  0.26180000  1.0
  H  H110  1  0.57340000  0.03640000  0.21920000  1.0
  H  H111  1  0.66170000  0.01430000  0.20970000  1.0
  H  H112  1  0.12660000  0.46640000  0.50630000  1.0
  H  H113  1  0.11660000  0.37710000  0.49310000  1.0
  H  H114  1  0.23520000  0.50170000  0.41350000  1.0
  H  H115  1  0.19100000  0.53320000  0.46310000  1.0
  H  H116  1  0.19080000  0.39740000  0.39290000  1.0
  H  H117  1  0.17770000  0.32530000  0.43040000  1.0
  H  H118  1  0.40590000  0.84110000  0.19020000  1.0
  H  H119  1  0.36350000  0.77680000  0.22410000  1.0
  H  H120  1  0.25160000  0.86160000  0.21410000  1.0
  H  H121  1  0.23820000  0.91890000  0.26180000  1.0
  H  H122  1  0.42660000  0.96360000  0.21920000  1.0
  H  H123  1  0.33830000  0.98570000  0.20970000  1.0
  H  H124  1  0.87340000  0.53360000  0.50630000  1.0
  H  H125  1  0.88340000  0.62290000  0.49310000  1.0
  H  H126  1  0.76480000  0.49830000  0.41350000  1.0
  H  H127  1  0.80900000  0.46680000  0.46310000  1.0
  H  H128  1  0.80920000  0.60260000  0.39290000  1.0
  H  H129  1  0.82230000  0.67470000  0.43040000  1.0
  C  C130  1  0.30670000  0.97130000  0.75420000  1.0
  C  C131  1  0.32410000  0.89490000  0.72590000  1.0
  C  C132  1  0.30500000  0.74370000  0.78410000  1.0
  C  C133  1  0.37230000  0.76610000  0.75040000  1.0
  C  C134  1  0.52310000  0.87880000  0.78100000  1.0
  C  C135  1  0.46660000  0.87540000  0.73570000  1.0
  C  C136  1  0.10430000  0.32420000  0.06080000  1.0
  C  C137  1  0.08390000  0.34660000  0.00600000  1.0
  C  C138  1  0.96100000  0.19120000  0.97060000  1.0
  C  C139  1  0.99890000  0.26520000  0.95170000  1.0
  C  C140  1  0.16400000  0.20970000  0.90640000  1.0
  C  C141  1  0.13180000  0.28690000  0.92210000  1.0
  C  C142  1  0.69330000  0.02870000  0.75420000  1.0
  C  C143  1  0.67590000  0.10510000  0.72590000  1.0
  C  C144  1  0.69500000  0.25630000  0.78410000  1.0
  C  C145  1  0.62770000  0.23390000  0.75040000  1.0
  C  C146  1  0.47690000  0.12120000  0.78100000  1.0
  C  C147  1  0.53340000  0.12460000  0.73570000  1.0
  C  C148  1  0.89570000  0.67580000  0.06080000  1.0
  C  C149  1  0.91610000  0.65340000  0.00600000  1.0
  C  C150  1  0.03900000  0.80880000  0.97060000  1.0
  C  C151  1  0.00110000  0.73480000  0.95170000  1.0
  C  C152  1  0.83600000  0.79030000  0.90640000  1.0
  C  C153  1  0.86820000  0.71310000  0.92210000  1.0
  C  C154  1  0.97130000  0.69330000  0.24580000  1.0
  C  C155  1  0.89490000  0.67590000  0.27410000  1.0
  C  C156  1  0.74370000  0.69500000  0.21590000  1.0
  C  C157  1  0.76610000  0.62770000  0.24960000  1.0
  C  C158  1  0.87880000  0.47690000  0.21900000  1.0
  C  C159  1  0.87540000  0.53340000  0.26430000  1.0
  C  C160  1  0.32420000  0.89570000  0.93920000  1.0
  C  C161  1  0.34660000  0.91610000  0.99400000  1.0
  C  C162  1  0.19120000  0.03900000  0.02940000  1.0
  C  C163  1  0.26520000  0.00110000  0.04830000  1.0
  C  C164  1  0.20970000  0.83600000  0.09360000  1.0
  C  C165  1  0.28690000  0.86820000  0.07790000  1.0
  C  C166  1  0.02870000  0.30670000  0.24580000  1.0
  C  C167  1  0.10510000  0.32410000  0.27410000  1.0
  C  C168  1  0.25630000  0.30500000  0.21590000  1.0
  C  C169  1  0.23390000  0.37230000  0.24960000  1.0
  C  C170  1  0.12120000  0.52310000  0.21900000  1.0
  C  C171  1  0.12460000  0.46660000  0.26430000  1.0
  C  C172  1  0.67580000  0.10430000  0.93920000  1.0
  C  C173  1  0.65340000  0.08390000  0.99400000  1.0
  C  C174  1  0.80880000  0.96100000  0.02940000  1.0
  C  C175  1  0.73480000  0.99890000  0.04830000  1.0
  C  C176  1  0.79030000  0.16400000  0.09360000  1.0
  C  C177  1  0.71310000  0.13180000  0.07790000  1.0
  C  C178  1  0.19330000  0.47130000  0.74580000  1.0
  C  C179  1  0.17590000  0.39490000  0.77410000  1.0
  C  C180  1  0.19500000  0.24370000  0.71590000  1.0
  C  C181  1  0.12770000  0.26610000  0.74960000  1.0
  C  C182  1  0.97690000  0.37880000  0.71900000  1.0
  C  C183  1  0.03340000  0.37540000  0.76430000  1.0
  C  C184  1  0.39570000  0.82420000  0.43920000  1.0
  C  C185  1  0.41610000  0.84660000  0.49400000  1.0
  C  C186  1  0.53900000  0.69120000  0.52940000  1.0
  C  C187  1  0.50110000  0.76520000  0.54830000  1.0
  C  C188  1  0.33600000  0.70970000  0.59360000  1.0
  C  C189  1  0.36820000  0.78690000  0.57790000  1.0
  C  C190  1  0.80670000  0.52870000  0.74580000  1.0
  C  C191  1  0.82410000  0.60510000  0.77410000  1.0
  C  C192  1  0.80500000  0.75630000  0.71590000  1.0
  C  C193  1  0.87230000  0.73390000  0.74960000  1.0
  C  C194  1  0.02310000  0.62120000  0.71900000  1.0
  C  C195  1  0.96660000  0.62460000  0.76430000  1.0
  C  C196  1  0.60430000  0.17580000  0.43920000  1.0
  C  C197  1  0.58390000  0.15340000  0.49400000  1.0
  C  C198  1  0.46100000  0.30880000  0.52940000  1.0
  C  C199  1  0.49890000  0.23480000  0.54830000  1.0
  C  C200  1  0.66400000  0.29030000  0.59360000  1.0
  C  C201  1  0.63180000  0.21310000  0.57790000  1.0
  C  C202  1  0.52870000  0.19330000  0.25420000  1.0
  C  C203  1  0.60510000  0.17590000  0.22590000  1.0
  C  C204  1  0.75630000  0.19500000  0.28410000  1.0
  C  C205  1  0.73390000  0.12770000  0.25040000  1.0
  C  C206  1  0.62120000  0.97690000  0.28100000  1.0
  C  C207  1  0.62460000  0.03340000  0.23570000  1.0
  C  C208  1  0.17580000  0.39570000  0.56080000  1.0
  C  C209  1  0.15340000  0.41610000  0.50600000  1.0
  C  C210  1  0.30880000  0.53900000  0.47060000  1.0
  C  C211  1  0.23480000  0.50110000  0.45170000  1.0
  C  C212  1  0.29030000  0.33600000  0.40640000  1.0
  C  C213  1  0.21310000  0.36820000  0.42210000  1.0
  C  C214  1  0.47130000  0.80670000  0.25420000  1.0
  C  C215  1  0.39490000  0.82410000  0.22590000  1.0
  C  C216  1  0.24370000  0.80500000  0.28410000  1.0
  C  C217  1  0.26610000  0.87230000  0.25040000  1.0
  C  C218  1  0.37880000  0.02310000  0.28100000  1.0
  C  C219  1  0.37540000  0.96660000  0.23570000  1.0
  C  C220  1  0.82420000  0.60430000  0.56080000  1.0
  C  C221  1  0.84660000  0.58390000  0.50600000  1.0
  C  C222  1  0.69120000  0.46100000  0.47060000  1.0
  C  C223  1  0.76520000  0.49890000  0.45170000  1.0
  C  C224  1  0.70970000  0.66400000  0.40640000  1.0
  C  C225  1  0.78690000  0.63180000  0.42210000  1.0
  N  N226  1  0.38570000  0.85090000  0.75380000  1.0
  N  N227  1  0.07930000  0.27950000  0.96890000  1.0
  N  N228  1  0.61430000  0.14910000  0.75380000  1.0
  N  N229  1  0.92070000  0.72050000  0.96890000  1.0
  N  N230  1  0.85090000  0.61430000  0.24620000  1.0
  N  N231  1  0.27950000  0.92070000  0.03110000  1.0
  N  N232  1  0.14910000  0.38570000  0.24620000  1.0
  N  N233  1  0.72050000  0.07930000  0.03110000  1.0
  N  N234  1  0.11430000  0.35090000  0.74620000  1.0
  N  N235  1  0.42070000  0.77950000  0.53110000  1.0
  N  N236  1  0.88570000  0.64910000  0.74620000  1.0
  N  N237  1  0.57930000  0.22050000  0.53110000  1.0
  N  N238  1  0.64910000  0.11430000  0.25380000  1.0
  N  N239  1  0.22050000  0.42070000  0.46890000  1.0
  N  N240  1  0.35090000  0.88570000  0.25380000  1.0
  N  N241  1  0.77950000  0.57930000  0.46890000  1.0
  O  O242  1  0.32260000  0.97630000  0.80280000  1.0
  O  O243  1  0.27640000  0.02520000  0.72890000  1.0
  O  O244  1  0.29760000  0.78410000  0.82690000  1.0
  O  O245  1  0.26110000  0.68880000  0.77160000  1.0
  O  O246  1  0.59370000  0.88020000  0.76950000  1.0
  O  O247  1  0.49650000  0.88490000  0.82740000  1.0
  O  O248  1  0.10790000  0.37960000  0.09380000  1.0
  O  O249  1  0.11520000  0.25250000  0.07220000  1.0
  O  O250  1  0.99930000  0.14500000  0.99890000  1.0
  O  O251  1  0.89310000  0.17900000  0.95360000  1.0
  O  O252  1  0.19650000  0.20420000  0.86260000  1.0
  O  O253  1  0.15920000  0.15410000  0.93950000  1.0
  O  O254  1  0.67740000  0.02370000  0.80280000  1.0
  O  O255  1  0.72360000  0.97480000  0.72890000  1.0
  O  O256  1  0.70240000  0.21590000  0.82690000  1.0
  O  O257  1  0.73890000  0.31120000  0.77160000  1.0
  O  O258  1  0.40630000  0.11980000  0.76950000  1.0
  O  O259  1  0.50350000  0.11510000  0.82740000  1.0
  O  O260  1  0.89210000  0.62040000  0.09380000  1.0
  O  O261  1  0.88480000  0.74750000  0.07220000  1.0
  O  O262  1  0.00070000  0.85500000  0.99890000  1.0
  O  O263  1  0.10690000  0.82100000  0.95360000  1.0
  O  O264  1  0.80350000  0.79580000  0.86260000  1.0
  O  O265  1  0.84080000  0.84590000  0.93950000  1.0
  O  O266  1  0.97630000  0.67740000  0.19720000  1.0
  O  O267  1  0.02520000  0.72360000  0.27110000  1.0
  O  O268  1  0.78410000  0.70240000  0.17310000  1.0
  O  O269  1  0.68880000  0.73890000  0.22840000  1.0
  O  O270  1  0.88020000  0.40630000  0.23050000  1.0
  O  O271  1  0.88490000  0.50350000  0.17260000  1.0
  O  O272  1  0.37960000  0.89210000  0.90620000  1.0
  O  O273  1  0.25250000  0.88480000  0.92780000  1.0
  O  O274  1  0.14500000  0.00070000  0.00110000  1.0
  O  O275  1  0.17900000  0.10690000  0.04640000  1.0
  O  O276  1  0.20420000  0.80350000  0.13740000  1.0
  O  O277  1  0.15410000  0.84080000  0.06050000  1.0
  O  O278  1  0.02370000  0.32260000  0.19720000  1.0
  O  O279  1  0.97480000  0.27640000  0.27110000  1.0
  O  O280  1  0.21590000  0.29760000  0.17310000  1.0
  O  O281  1  0.31120000  0.26110000  0.22840000  1.0
  O  O282  1  0.11980000  0.59370000  0.23050000  1.0
  O  O283  1  0.11510000  0.49650000  0.17260000  1.0
  O  O284  1  0.62040000  0.10790000  0.90620000  1.0
  O  O285  1  0.74750000  0.11520000  0.92780000  1.0
  O  O286  1  0.85500000  0.99930000  0.00110000  1.0
  O  O287  1  0.82100000  0.89310000  0.04640000  1.0
  O  O288  1  0.79580000  0.19650000  0.13740000  1.0
  O  O289  1  0.84590000  0.15920000  0.06050000  1.0
  O  O290  1  0.17740000  0.47630000  0.69720000  1.0
  O  O291  1  0.22360000  0.52520000  0.77110000  1.0
  O  O292  1  0.20240000  0.28410000  0.67310000  1.0
  O  O293  1  0.23890000  0.18880000  0.72840000  1.0
  O  O294  1  0.90630000  0.38020000  0.73050000  1.0
  O  O295  1  0.00350000  0.38490000  0.67260000  1.0
  O  O296  1  0.39210000  0.87960000  0.40620000  1.0
  O  O297  1  0.38480000  0.75250000  0.42780000  1.0
  O  O298  1  0.50070000  0.64500000  0.50110000  1.0
  O  O299  1  0.60690000  0.67900000  0.54640000  1.0
  O  O300  1  0.30350000  0.70420000  0.63740000  1.0
  O  O301  1  0.34080000  0.65410000  0.56050000  1.0
  O  O302  1  0.82260000  0.52370000  0.69720000  1.0
  O  O303  1  0.77640000  0.47480000  0.77110000  1.0
  O  O304  1  0.79760000  0.71590000  0.67310000  1.0
  O  O305  1  0.76110000  0.81120000  0.72840000  1.0
  O  O306  1  0.09370000  0.61980000  0.73050000  1.0
  O  O307  1  0.99650000  0.61510000  0.67260000  1.0
  O  O308  1  0.60790000  0.12040000  0.40620000  1.0
  O  O309  1  0.61520000  0.24750000  0.42780000  1.0
  O  O310  1  0.49930000  0.35500000  0.50110000  1.0
  O  O311  1  0.39310000  0.32100000  0.54640000  1.0
  O  O312  1  0.69650000  0.29580000  0.63740000  1.0
  O  O313  1  0.65920000  0.34590000  0.56050000  1.0
  O  O314  1  0.52370000  0.17740000  0.30280000  1.0
  O  O315  1  0.47480000  0.22360000  0.22890000  1.0
  O  O316  1  0.71590000  0.20240000  0.32690000  1.0
  O  O317  1  0.81120000  0.23890000  0.27160000  1.0
  O  O318  1  0.61980000  0.90630000  0.26950000  1.0
  O  O319  1  0.61510000  0.00350000  0.32740000  1.0
  O  O320  1  0.12040000  0.39210000  0.59380000  1.0
  O  O321  1  0.24750000  0.38480000  0.57220000  1.0
  O  O322  1  0.35500000  0.50070000  0.49890000  1.0
  O  O323  1  0.32100000  0.60690000  0.45360000  1.0
  O  O324  1  0.29580000  0.30350000  0.36260000  1.0
  O  O325  1  0.34590000  0.34080000  0.43950000  1.0
  O  O326  1  0.47630000  0.82260000  0.30280000  1.0
  O  O327  1  0.52520000  0.77640000  0.22890000  1.0
  O  O328  1  0.28410000  0.79760000  0.32690000  1.0
  O  O329  1  0.18880000  0.76110000  0.27160000  1.0
  O  O330  1  0.38020000  0.09370000  0.26950000  1.0
  O  O331  1  0.38490000  0.99650000  0.32740000  1.0
  O  O332  1  0.87960000  0.60790000  0.59380000  1.0
  O  O333  1  0.75250000  0.61520000  0.57220000  1.0
  O  O334  1  0.64500000  0.49930000  0.49890000  1.0
  O  O335  1  0.67900000  0.39310000  0.45360000  1.0
  O  O336  1  0.70420000  0.69650000  0.36260000  1.0
  O  O337  1  0.65410000  0.65920000  0.43950000  1.0
