# generated using pymatgen
data_SmV2H24C44S4N4O13
_symmetry_space_group_name_H-M   'P 1'
_cell_length_a   15.39040000
_cell_length_b   15.39040000
_cell_length_c   9.85860000
_cell_angle_alpha   90.00000000
_cell_angle_beta   90.00000000
_cell_angle_gamma   90.00000000
_symmetry_Int_Tables_number   1
_chemical_formula_structural   SmV2H24C44S4N4O13
_chemical_formula_sum   'Sm2 V4 H48 C88 S8 N8 O26'
_cell_volume   2335.15149372
_cell_formula_units_Z   2
loop_
 _symmetry_equiv_pos_site_id
 _symmetry_equiv_pos_as_xyz
  1  'x, y, z'
loop_
 _atom_site_type_symbol
 _atom_site_label
 _atom_site_symmetry_multiplicity
 _atom_site_fract_x
 _atom_site_fract_y
 _atom_site_fract_z
 _atom_site_occupancy
  Sm  Sm0  1  0.50000000  0.50000000  0.25000000  1.0
  Sm  Sm1  1  0.50000000  0.50000000  0.75000000  1.0
  V  V2  1  0.00000000  0.00000000  0.08800000  1.0
  V  V3  1  0.00000000  0.00000000  0.41200000  1.0
  V  V4  1  0.00000000  0.00000000  0.91200000  1.0
  V  V5  1  0.00000000  0.00000000  0.58800000  1.0
  H  H6  1  0.17770000  0.71270000  0.20490000  1.0
  H  H7  1  0.26200000  0.58770000  0.20310000  1.0
  H  H8  1  0.82230000  0.28730000  0.20490000  1.0
  H  H9  1  0.73800000  0.41230000  0.20310000  1.0
  H  H10  1  0.28730000  0.17770000  0.20490000  1.0
  H  H11  1  0.41230000  0.26200000  0.20310000  1.0
  H  H12  1  0.71270000  0.82230000  0.20490000  1.0
  H  H13  1  0.58770000  0.73800000  0.20310000  1.0
  H  H14  1  0.82230000  0.71270000  0.29510000  1.0
  H  H15  1  0.73800000  0.58770000  0.29690000  1.0
  H  H16  1  0.17770000  0.28730000  0.29510000  1.0
  H  H17  1  0.26200000  0.41230000  0.29690000  1.0
  H  H18  1  0.71270000  0.17770000  0.29510000  1.0
  H  H19  1  0.58770000  0.26200000  0.29690000  1.0
  H  H20  1  0.28730000  0.82230000  0.29510000  1.0
  H  H21  1  0.41230000  0.73800000  0.29690000  1.0
  H  H22  1  0.82230000  0.28730000  0.79510000  1.0
  H  H23  1  0.73800000  0.41230000  0.79690000  1.0
  H  H24  1  0.17770000  0.71270000  0.79510000  1.0
  H  H25  1  0.26200000  0.58770000  0.79690000  1.0
  H  H26  1  0.71270000  0.82230000  0.79510000  1.0
  H  H27  1  0.58770000  0.73800000  0.79690000  1.0
  H  H28  1  0.28730000  0.17770000  0.79510000  1.0
  H  H29  1  0.41230000  0.26200000  0.79690000  1.0
  H  H30  1  0.17770000  0.28730000  0.70490000  1.0
  H  H31  1  0.26200000  0.41230000  0.70310000  1.0
  H  H32  1  0.82230000  0.71270000  0.70490000  1.0
  H  H33  1  0.73800000  0.58770000  0.70310000  1.0
  H  H34  1  0.28730000  0.82230000  0.70490000  1.0
  H  H35  1  0.41230000  0.73800000  0.70310000  1.0
  H  H36  1  0.71270000  0.17770000  0.70490000  1.0
  H  H37  1  0.58770000  0.26200000  0.70310000  1.0
  H  H38  1  0.29990000  0.84810000  0.00000000  1.0
  H  H39  1  0.33390000  0.00470000  0.00000000  1.0
  H  H40  1  0.70010000  0.15190000  0.00000000  1.0
  H  H41  1  0.66610000  0.99530000  0.00000000  1.0
  H  H42  1  0.15190000  0.29990000  0.00000000  1.0
  H  H43  1  0.99530000  0.33390000  0.00000000  1.0
  H  H44  1  0.84810000  0.70010000  0.00000000  1.0
  H  H45  1  0.00470000  0.66610000  0.00000000  1.0
  H  H46  1  0.70010000  0.84810000  0.50000000  1.0
  H  H47  1  0.66610000  0.00470000  0.50000000  1.0
  H  H48  1  0.29990000  0.15190000  0.50000000  1.0
  H  H49  1  0.33390000  0.99530000  0.50000000  1.0
  H  H50  1  0.84810000  0.29990000  0.50000000  1.0
  H  H51  1  0.00470000  0.33390000  0.50000000  1.0
  H  H52  1  0.15190000  0.70010000  0.50000000  1.0
  H  H53  1  0.99530000  0.66610000  0.50000000  1.0
  C  C54  1  0.19480000  0.68790000  0.12080000  1.0
  C  C55  1  0.24440000  0.61320000  0.11970000  1.0
  C  C56  1  0.80520000  0.31210000  0.12080000  1.0
  C  C57  1  0.75560000  0.38680000  0.11970000  1.0
  C  C58  1  0.31210000  0.19480000  0.12080000  1.0
  C  C59  1  0.38680000  0.24440000  0.11970000  1.0
  C  C60  1  0.68790000  0.80520000  0.12080000  1.0
  C  C61  1  0.61320000  0.75560000  0.11970000  1.0
  C  C62  1  0.80520000  0.68790000  0.37920000  1.0
  C  C63  1  0.75560000  0.61320000  0.38030000  1.0
  C  C64  1  0.19480000  0.31210000  0.37920000  1.0
  C  C65  1  0.24440000  0.38680000  0.38030000  1.0
  C  C66  1  0.68790000  0.19480000  0.37920000  1.0
  C  C67  1  0.61320000  0.24440000  0.38030000  1.0
  C  C68  1  0.31210000  0.80520000  0.37920000  1.0
  C  C69  1  0.38680000  0.75560000  0.38030000  1.0
  C  C70  1  0.80520000  0.31210000  0.87920000  1.0
  C  C71  1  0.75560000  0.38680000  0.88030000  1.0
  C  C72  1  0.19480000  0.68790000  0.87920000  1.0
  C  C73  1  0.24440000  0.61320000  0.88030000  1.0
  C  C74  1  0.68790000  0.80520000  0.87920000  1.0
  C  C75  1  0.61320000  0.75560000  0.88030000  1.0
  C  C76  1  0.31210000  0.19480000  0.87920000  1.0
  C  C77  1  0.38680000  0.24440000  0.88030000  1.0
  C  C78  1  0.19480000  0.31210000  0.62080000  1.0
  C  C79  1  0.24440000  0.38680000  0.61970000  1.0
  C  C80  1  0.80520000  0.68790000  0.62080000  1.0
  C  C81  1  0.75560000  0.61320000  0.61970000  1.0
  C  C82  1  0.31210000  0.80520000  0.62080000  1.0
  C  C83  1  0.38680000  0.75560000  0.61970000  1.0
  C  C84  1  0.68790000  0.19480000  0.62080000  1.0
  C  C85  1  0.61320000  0.24440000  0.61970000  1.0
  C  C86  1  0.26840000  0.57550000  0.00000000  1.0
  C  C87  1  0.16970000  0.72710000  0.00000000  1.0
  C  C88  1  0.25910000  0.89450000  0.00000000  1.0
  C  C89  1  0.11710000  0.80900000  0.00000000  1.0
  C  C90  1  0.16350000  0.88670000  0.00000000  1.0
  C  C91  1  0.02740000  0.80370000  0.00000000  1.0
  C  C92  1  0.27740000  0.97990000  0.00000000  1.0
  C  C93  1  0.73160000  0.42450000  0.00000000  1.0
  C  C94  1  0.83030000  0.27290000  0.00000000  1.0
  C  C95  1  0.74090000  0.10550000  0.00000000  1.0
  C  C96  1  0.88290000  0.19100000  0.00000000  1.0
  C  C97  1  0.83650000  0.11330000  0.00000000  1.0
  C  C98  1  0.97260000  0.19630000  0.00000000  1.0
  C  C99  1  0.72260000  0.02010000  0.00000000  1.0
  C  C100  1  0.42450000  0.26840000  0.00000000  1.0
  C  C101  1  0.27290000  0.16970000  0.00000000  1.0
  C  C102  1  0.10550000  0.25910000  0.00000000  1.0
  C  C103  1  0.19100000  0.11710000  0.00000000  1.0
  C  C104  1  0.11330000  0.16350000  0.00000000  1.0
  C  C105  1  0.19630000  0.02740000  0.00000000  1.0
  C  C106  1  0.02010000  0.27740000  0.00000000  1.0
  C  C107  1  0.57550000  0.73160000  0.00000000  1.0
  C  C108  1  0.72710000  0.83030000  0.00000000  1.0
  C  C109  1  0.89450000  0.74090000  0.00000000  1.0
  C  C110  1  0.80900000  0.88290000  0.00000000  1.0
  C  C111  1  0.88670000  0.83650000  0.00000000  1.0
  C  C112  1  0.80370000  0.97260000  0.00000000  1.0
  C  C113  1  0.97990000  0.72260000  0.00000000  1.0
  C  C114  1  0.73160000  0.57550000  0.50000000  1.0
  C  C115  1  0.83030000  0.72710000  0.50000000  1.0
  C  C116  1  0.74090000  0.89450000  0.50000000  1.0
  C  C117  1  0.88290000  0.80900000  0.50000000  1.0
  C  C118  1  0.83650000  0.88670000  0.50000000  1.0
  C  C119  1  0.97260000  0.80370000  0.50000000  1.0
  C  C120  1  0.72260000  0.97990000  0.50000000  1.0
  C  C121  1  0.26840000  0.42450000  0.50000000  1.0
  C  C122  1  0.16970000  0.27290000  0.50000000  1.0
  C  C123  1  0.25910000  0.10550000  0.50000000  1.0
  C  C124  1  0.11710000  0.19100000  0.50000000  1.0
  C  C125  1  0.16350000  0.11330000  0.50000000  1.0
  C  C126  1  0.02740000  0.19630000  0.50000000  1.0
  C  C127  1  0.27740000  0.02010000  0.50000000  1.0
  C  C128  1  0.57550000  0.26840000  0.50000000  1.0
  C  C129  1  0.72710000  0.16970000  0.50000000  1.0
  C  C130  1  0.89450000  0.25910000  0.50000000  1.0
  C  C131  1  0.80900000  0.11710000  0.50000000  1.0
  C  C132  1  0.88670000  0.16350000  0.50000000  1.0
  C  C133  1  0.80370000  0.02740000  0.50000000  1.0
  C  C134  1  0.97990000  0.27740000  0.50000000  1.0
  C  C135  1  0.42450000  0.73160000  0.50000000  1.0
  C  C136  1  0.27290000  0.83030000  0.50000000  1.0
  C  C137  1  0.10550000  0.74090000  0.50000000  1.0
  C  C138  1  0.19100000  0.88290000  0.50000000  1.0
  C  C139  1  0.11330000  0.83650000  0.50000000  1.0
  C  C140  1  0.19630000  0.97260000  0.50000000  1.0
  C  C141  1  0.02010000  0.72260000  0.50000000  1.0
  S  S142  1  0.32117000  0.47399000  0.00000000  1.0
  S  S143  1  0.67883000  0.52601000  0.00000000  1.0
  S  S144  1  0.52601000  0.32117000  0.00000000  1.0
  S  S145  1  0.47399000  0.67883000  0.00000000  1.0
  S  S146  1  0.67883000  0.47399000  0.50000000  1.0
  S  S147  1  0.32117000  0.52601000  0.50000000  1.0
  S  S148  1  0.47399000  0.32117000  0.50000000  1.0
  S  S149  1  0.52601000  0.67883000  0.50000000  1.0
  N  N150  1  0.13040000  0.97000000  0.00000000  1.0
  N  N151  1  0.86960000  0.03000000  0.00000000  1.0
  N  N152  1  0.03000000  0.13040000  0.00000000  1.0
  N  N153  1  0.97000000  0.86960000  0.00000000  1.0
  N  N154  1  0.86960000  0.97000000  0.50000000  1.0
  N  N155  1  0.13040000  0.03000000  0.50000000  1.0
  N  N156  1  0.97000000  0.13040000  0.50000000  1.0
  N  N157  1  0.03000000  0.86960000  0.50000000  1.0
  O  O158  1  0.37360000  0.46940000  0.12230000  1.0
  O  O159  1  0.62640000  0.53060000  0.12230000  1.0
  O  O160  1  0.53060000  0.37360000  0.12230000  1.0
  O  O161  1  0.46940000  0.62640000  0.12230000  1.0
  O  O162  1  0.62640000  0.46940000  0.37770000  1.0
  O  O163  1  0.37360000  0.53060000  0.37770000  1.0
  O  O164  1  0.46940000  0.37360000  0.37770000  1.0
  O  O165  1  0.53060000  0.62640000  0.37770000  1.0
  O  O166  1  0.62640000  0.53060000  0.87770000  1.0
  O  O167  1  0.37360000  0.46940000  0.87770000  1.0
  O  O168  1  0.46940000  0.62640000  0.87770000  1.0
  O  O169  1  0.53060000  0.37360000  0.87770000  1.0
  O  O170  1  0.37360000  0.53060000  0.62230000  1.0
  O  O171  1  0.62640000  0.46940000  0.62230000  1.0
  O  O172  1  0.53060000  0.62640000  0.62230000  1.0
  O  O173  1  0.46940000  0.37360000  0.62230000  1.0
  O  O174  1  0.25300000  0.41040000  0.00000000  1.0
  O  O175  1  0.74700000  0.58960000  0.00000000  1.0
  O  O176  1  0.58960000  0.25300000  0.00000000  1.0
  O  O177  1  0.41040000  0.74700000  0.00000000  1.0
  O  O178  1  0.74700000  0.41040000  0.50000000  1.0
  O  O179  1  0.25300000  0.58960000  0.50000000  1.0
  O  O180  1  0.41040000  0.25300000  0.50000000  1.0
  O  O181  1  0.58960000  0.74700000  0.50000000  1.0
  O  O182  1  0.00000000  0.00000000  0.25000000  1.0
  O  O183  1  0.00000000  0.00000000  0.75000000  1.0
