# generated using pymatgen
data_MnH3(CO2)3
_symmetry_space_group_name_H-M   'P 1'
_cell_length_a   12.19620000
_cell_length_b   12.36750000
_cell_length_c   12.81550000
_cell_angle_alpha   90.00000000
_cell_angle_beta   91.42800000
_cell_angle_gamma   90.00000000
_symmetry_Int_Tables_number   1
_chemical_formula_structural   MnH3(CO2)3
_chemical_formula_sum   'Mn8 H24 C24 O48'
_cell_volume   1932.44486590
_cell_formula_units_Z   8
loop_
 _symmetry_equiv_pos_site_id
 _symmetry_equiv_pos_as_xyz
  1  'x, y, z'
loop_
 _atom_site_type_symbol
 _atom_site_label
 _atom_site_symmetry_multiplicity
 _atom_site_fract_x
 _atom_site_fract_y
 _atom_site_fract_z
 _atom_site_occupancy
  Mn  Mn0  1  0.23534000  0.25497000  0.01177000  1.0
  Mn  Mn1  1  0.73602000  0.24709000  0.01000000  1.0
  Mn  Mn2  1  0.26466000  0.75497000  0.48823000  1.0
  Mn  Mn3  1  0.76398000  0.74709000  0.49000000  1.0
  Mn  Mn4  1  0.76466000  0.74503000  0.98823000  1.0
  Mn  Mn5  1  0.26398000  0.75291000  0.99000000  1.0
  Mn  Mn6  1  0.73534000  0.24503000  0.51177000  1.0
  Mn  Mn7  1  0.23602000  0.25291000  0.51000000  1.0
  H  H8  1  0.48900000  0.23700000  0.06270000  1.0
  H  H9  1  0.98900000  0.31000000  0.07100000  1.0
  H  H10  1  0.18900000  0.33900000  0.26200000  1.0
  H  H11  1  0.28800000  0.33000000  0.76300000  1.0
  H  H12  1  0.73100000  0.49200000  0.91000000  1.0
  H  H13  1  0.78800000  0.00100000  0.06200000  1.0
  H  H14  1  0.01100000  0.73700000  0.43730000  1.0
  H  H15  1  0.51100000  0.81000000  0.42900000  1.0
  H  H16  1  0.31100000  0.83900000  0.23800000  1.0
  H  H17  1  0.21200000  0.83000000  0.73700000  1.0
  H  H18  1  0.76900000  0.99200000  0.59000000  1.0
  H  H19  1  0.71200000  0.50100000  0.43800000  1.0
  H  H20  1  0.51100000  0.76300000  0.93730000  1.0
  H  H21  1  0.01100000  0.69000000  0.92900000  1.0
  H  H22  1  0.81100000  0.66100000  0.73800000  1.0
  H  H23  1  0.71200000  0.67000000  0.23700000  1.0
  H  H24  1  0.26900000  0.50800000  0.09000000  1.0
  H  H25  1  0.21200000  0.99900000  0.93800000  1.0
  H  H26  1  0.98900000  0.26300000  0.56270000  1.0
  H  H27  1  0.48900000  0.19000000  0.57100000  1.0
  H  H28  1  0.68900000  0.16100000  0.76200000  1.0
  H  H29  1  0.78800000  0.17000000  0.26300000  1.0
  H  H30  1  0.23100000  0.00800000  0.41000000  1.0
  H  H31  1  0.28800000  0.49900000  0.56200000  1.0
  C  C32  1  0.24590000  0.28245000  0.26199000  1.0
  C  C33  1  0.72439000  0.99767000  0.01267000  1.0
  C  C34  1  0.23006000  0.27129000  0.75819000  1.0
  C  C35  1  0.78496000  0.49548000  0.97420000  1.0
  C  C36  1  0.98699000  0.23116000  0.04883000  1.0
  C  C37  1  0.48335000  0.28929000  0.00525000  1.0
  C  C38  1  0.25410000  0.78245000  0.23801000  1.0
  C  C39  1  0.77561000  0.49767000  0.48733000  1.0
  C  C40  1  0.26994000  0.77129000  0.74181000  1.0
  C  C41  1  0.71504000  0.99548000  0.52580000  1.0
  C  C42  1  0.51301000  0.73116000  0.45117000  1.0
  C  C43  1  0.01665000  0.78929000  0.49475000  1.0
  C  C44  1  0.75410000  0.71755000  0.73801000  1.0
  C  C45  1  0.27561000  0.00233000  0.98733000  1.0
  C  C46  1  0.76994000  0.72871000  0.24181000  1.0
  C  C47  1  0.21504000  0.50452000  0.02580000  1.0
  C  C48  1  0.01301000  0.76884000  0.95117000  1.0
  C  C49  1  0.51665000  0.71071000  0.99475000  1.0
  C  C50  1  0.74590000  0.21755000  0.76199000  1.0
  C  C51  1  0.22439000  0.50233000  0.51267000  1.0
  C  C52  1  0.73006000  0.22871000  0.25819000  1.0
  C  C53  1  0.28496000  0.00452000  0.47420000  1.0
  C  C54  1  0.48699000  0.26884000  0.54883000  1.0
  C  C55  1  0.98335000  0.21071000  0.50525000  1.0
  O  O56  1  0.19909000  0.23455000  0.84414000  1.0
  O  O57  1  0.57443000  0.31667000  0.96969000  1.0
  O  O58  1  0.89582000  0.18502000  0.04892000  1.0
  O  O59  1  0.07455000  0.18937000  0.02342000  1.0
  O  O60  1  0.27457000  0.24117000  0.34712000  1.0
  O  O61  1  0.83512000  0.58315000  0.99275000  1.0
  O  O62  1  0.39312000  0.32397000  0.97388000  1.0
  O  O63  1  0.67647000  0.08408000  0.99073000  1.0
  O  O64  1  0.19194000  0.24098000  0.67234000  1.0
  O  O65  1  0.69313000  0.90642000  0.97886000  1.0
  O  O66  1  0.28081000  0.25435000  0.17541000  1.0
  O  O67  1  0.79731000  0.41199000  0.02574000  1.0
  O  O68  1  0.30091000  0.73455000  0.65586000  1.0
  O  O69  1  0.92557000  0.81667000  0.53031000  1.0
  O  O70  1  0.60418000  0.68502000  0.45108000  1.0
  O  O71  1  0.42545000  0.68937000  0.47658000  1.0
  O  O72  1  0.22543000  0.74117000  0.15288000  1.0
  O  O73  1  0.66488000  0.08315000  0.50725000  1.0
  O  O74  1  0.10688000  0.82397000  0.52612000  1.0
  O  O75  1  0.82353000  0.58408000  0.50927000  1.0
  O  O76  1  0.30806000  0.74098000  0.82766000  1.0
  O  O77  1  0.80687000  0.40642000  0.52114000  1.0
  O  O78  1  0.21919000  0.75435000  0.32459000  1.0
  O  O79  1  0.70269000  0.91199000  0.47426000  1.0
  O  O80  1  0.80091000  0.76545000  0.15586000  1.0
  O  O81  1  0.42557000  0.68333000  0.03031000  1.0
  O  O82  1  0.10418000  0.81498000  0.95108000  1.0
  O  O83  1  0.92545000  0.81063000  0.97658000  1.0
  O  O84  1  0.72543000  0.75883000  0.65288000  1.0
  O  O85  1  0.16488000  0.41685000  0.00725000  1.0
  O  O86  1  0.60688000  0.67603000  0.02612000  1.0
  O  O87  1  0.32353000  0.91592000  0.00927000  1.0
  O  O88  1  0.80806000  0.75902000  0.32766000  1.0
  O  O89  1  0.30687000  0.09358000  0.02114000  1.0
  O  O90  1  0.71919000  0.74565000  0.82459000  1.0
  O  O91  1  0.20269000  0.58801000  0.97426000  1.0
  O  O92  1  0.69909000  0.26545000  0.34414000  1.0
  O  O93  1  0.07443000  0.18333000  0.46969000  1.0
  O  O94  1  0.39582000  0.31498000  0.54892000  1.0
  O  O95  1  0.57455000  0.31063000  0.52342000  1.0
  O  O96  1  0.77457000  0.25883000  0.84712000  1.0
  O  O97  1  0.33512000  0.91685000  0.49275000  1.0
  O  O98  1  0.89312000  0.17603000  0.47388000  1.0
  O  O99  1  0.17647000  0.41592000  0.49073000  1.0
  O  O100  1  0.69194000  0.25902000  0.17234000  1.0
  O  O101  1  0.19313000  0.59358000  0.47886000  1.0
  O  O102  1  0.78081000  0.24565000  0.67541000  1.0
  O  O103  1  0.29731000  0.08801000  0.52574000  1.0
