# generated using pymatgen
data_MnAg2H4(C5N3)2
_symmetry_space_group_name_H-M   'P 1'
_cell_length_a   7.58310000
_cell_length_b   13.79890000
_cell_length_c   31.08640000
_cell_angle_alpha   90.00000000
_cell_angle_beta   90.00000000
_cell_angle_gamma   90.00000000
_symmetry_Int_Tables_number   1
_chemical_formula_structural   MnAg2H4(C5N3)2
_chemical_formula_sum   'Mn8 Ag16 H32 C80 N48'
_cell_volume   3252.83235738
_cell_formula_units_Z   8
loop_
 _symmetry_equiv_pos_site_id
 _symmetry_equiv_pos_as_xyz
  1  'x, y, z'
loop_
 _atom_site_type_symbol
 _atom_site_label
 _atom_site_symmetry_multiplicity
 _atom_site_fract_x
 _atom_site_fract_y
 _atom_site_fract_z
 _atom_site_occupancy
  Mn  Mn0  1  0.94600000  0.08702000  0.25000000  1.0
  Mn  Mn1  1  0.55400000  0.58702000  0.75000000  1.0
  Mn  Mn2  1  0.05400000  0.91298000  0.75000000  1.0
  Mn  Mn3  1  0.44600000  0.41298000  0.25000000  1.0
  Mn  Mn4  1  0.50000000  0.50000000  0.50000000  1.0
  Mn  Mn5  1  0.00000000  0.00000000  0.50000000  1.0
  Mn  Mn6  1  0.50000000  0.50000000  0.00000000  1.0
  Mn  Mn7  1  0.00000000  0.00000000  0.00000000  1.0
  Ag  Ag8  1  0.49585000  0.05619000  0.38129000  1.0
  Ag  Ag9  1  0.23704000  0.24206000  0.38974000  1.0
  Ag  Ag10  1  0.00415000  0.55619000  0.61871000  1.0
  Ag  Ag11  1  0.26296000  0.74206000  0.61026000  1.0
  Ag  Ag12  1  0.50415000  0.94381000  0.88129000  1.0
  Ag  Ag13  1  0.76296000  0.75794000  0.88974000  1.0
  Ag  Ag14  1  0.99585000  0.44381000  0.11871000  1.0
  Ag  Ag15  1  0.73704000  0.25794000  0.11026000  1.0
  Ag  Ag16  1  0.50415000  0.94381000  0.61871000  1.0
  Ag  Ag17  1  0.76296000  0.75794000  0.61026000  1.0
  Ag  Ag18  1  0.99585000  0.44381000  0.38129000  1.0
  Ag  Ag19  1  0.73704000  0.25794000  0.38974000  1.0
  Ag  Ag20  1  0.49585000  0.05619000  0.11871000  1.0
  Ag  Ag21  1  0.23704000  0.24206000  0.11026000  1.0
  Ag  Ag22  1  0.00415000  0.55619000  0.88129000  1.0
  Ag  Ag23  1  0.26296000  0.74206000  0.88974000  1.0
  H  H24  1  0.64370000  0.37130000  0.65410000  1.0
  H  H25  1  0.69630000  0.16760000  0.56300000  1.0
  H  H26  1  0.57430000  0.47990000  0.60100000  1.0
  H  H27  1  0.63680000  0.28360000  0.51240000  1.0
  H  H28  1  0.85630000  0.87130000  0.34590000  1.0
  H  H29  1  0.80370000  0.66760000  0.43700000  1.0
  H  H30  1  0.92570000  0.97990000  0.39900000  1.0
  H  H31  1  0.86320000  0.78360000  0.48760000  1.0
  H  H32  1  0.35630000  0.62870000  0.15410000  1.0
  H  H33  1  0.30370000  0.83240000  0.06300000  1.0
  H  H34  1  0.42570000  0.52010000  0.10100000  1.0
  H  H35  1  0.36320000  0.71640000  0.01240000  1.0
  H  H36  1  0.14370000  0.12870000  0.84590000  1.0
  H  H37  1  0.19630000  0.33240000  0.93700000  1.0
  H  H38  1  0.07430000  0.02010000  0.89900000  1.0
  H  H39  1  0.13680000  0.21640000  0.98760000  1.0
  H  H40  1  0.35630000  0.62870000  0.34590000  1.0
  H  H41  1  0.30370000  0.83240000  0.43700000  1.0
  H  H42  1  0.42570000  0.52010000  0.39900000  1.0
  H  H43  1  0.36320000  0.71640000  0.48760000  1.0
  H  H44  1  0.14370000  0.12870000  0.65410000  1.0
  H  H45  1  0.19630000  0.33240000  0.56300000  1.0
  H  H46  1  0.07430000  0.02010000  0.60100000  1.0
  H  H47  1  0.13680000  0.21640000  0.51240000  1.0
  H  H48  1  0.64370000  0.37130000  0.84590000  1.0
  H  H49  1  0.69630000  0.16760000  0.93700000  1.0
  H  H50  1  0.57430000  0.47990000  0.89900000  1.0
  H  H51  1  0.63680000  0.28360000  0.98760000  1.0
  H  H52  1  0.85630000  0.87130000  0.15410000  1.0
  H  H53  1  0.80370000  0.66760000  0.06300000  1.0
  H  H54  1  0.92570000  0.97990000  0.10100000  1.0
  H  H55  1  0.86320000  0.78360000  0.01240000  1.0
  C  C56  1  0.65720000  0.05650000  0.32827000  1.0
  C  C57  1  0.33620000  0.03923000  0.43411000  1.0
  C  C58  1  0.63950000  0.35180000  0.62551000  1.0
  C  C59  1  0.70830000  0.18550000  0.64724000  1.0
  C  C60  1  0.67260000  0.25670000  0.61396000  1.0
  C  C61  1  0.67220000  0.23100000  0.57135000  1.0
  C  C62  1  0.60010000  0.41630000  0.59338000  1.0
  C  C63  1  0.16280000  0.16644000  0.33561000  1.0
  C  C64  1  0.31940000  0.32740000  0.44014000  1.0
  C  C65  1  0.63520000  0.30075000  0.54134000  1.0
  C  C66  1  0.84280000  0.55650000  0.67173000  1.0
  C  C67  1  0.16380000  0.53923000  0.56589000  1.0
  C  C68  1  0.86050000  0.85180000  0.37449000  1.0
  C  C69  1  0.79170000  0.68550000  0.35276000  1.0
  C  C70  1  0.82740000  0.75670000  0.38604000  1.0
  C  C71  1  0.82780000  0.73100000  0.42865000  1.0
  C  C72  1  0.89990000  0.91630000  0.40662000  1.0
  C  C73  1  0.33720000  0.66644000  0.66439000  1.0
  C  C74  1  0.18060000  0.82740000  0.55986000  1.0
  C  C75  1  0.86480000  0.80075000  0.45866000  1.0
  C  C76  1  0.34280000  0.94350000  0.82827000  1.0
  C  C77  1  0.66380000  0.96077000  0.93411000  1.0
  C  C78  1  0.36050000  0.64820000  0.12551000  1.0
  C  C79  1  0.29170000  0.81450000  0.14724000  1.0
  C  C80  1  0.32740000  0.74330000  0.11396000  1.0
  C  C81  1  0.32780000  0.76900000  0.07135000  1.0
  C  C82  1  0.39990000  0.58370000  0.09338000  1.0
  C  C83  1  0.83720000  0.83356000  0.83561000  1.0
  C  C84  1  0.68060000  0.67260000  0.94014000  1.0
  C  C85  1  0.36480000  0.69925000  0.04134000  1.0
  C  C86  1  0.15720000  0.44350000  0.17173000  1.0
  C  C87  1  0.83620000  0.46077000  0.06589000  1.0
  C  C88  1  0.13950000  0.14820000  0.87449000  1.0
  C  C89  1  0.20830000  0.31450000  0.85276000  1.0
  C  C90  1  0.17260000  0.24330000  0.88604000  1.0
  C  C91  1  0.17220000  0.26900000  0.92865000  1.0
  C  C92  1  0.10010000  0.08370000  0.90662000  1.0
  C  C93  1  0.66280000  0.33356000  0.16439000  1.0
  C  C94  1  0.81940000  0.17260000  0.05986000  1.0
  C  C95  1  0.13520000  0.19925000  0.95866000  1.0
  C  C96  1  0.34280000  0.94350000  0.67173000  1.0
  C  C97  1  0.66380000  0.96077000  0.56589000  1.0
  C  C98  1  0.36050000  0.64820000  0.37449000  1.0
  C  C99  1  0.29170000  0.81450000  0.35276000  1.0
  C  C100  1  0.32740000  0.74330000  0.38604000  1.0
  C  C101  1  0.32780000  0.76900000  0.42865000  1.0
  C  C102  1  0.39990000  0.58370000  0.40662000  1.0
  C  C103  1  0.83720000  0.83356000  0.66439000  1.0
  C  C104  1  0.68060000  0.67260000  0.55986000  1.0
  C  C105  1  0.36480000  0.69925000  0.45866000  1.0
  C  C106  1  0.15720000  0.44350000  0.32827000  1.0
  C  C107  1  0.83620000  0.46077000  0.43411000  1.0
  C  C108  1  0.13950000  0.14820000  0.62551000  1.0
  C  C109  1  0.20830000  0.31450000  0.64724000  1.0
  C  C110  1  0.17260000  0.24330000  0.61396000  1.0
  C  C111  1  0.17220000  0.26900000  0.57135000  1.0
  C  C112  1  0.10010000  0.08370000  0.59338000  1.0
  C  C113  1  0.66280000  0.33356000  0.33561000  1.0
  C  C114  1  0.81940000  0.17260000  0.44014000  1.0
  C  C115  1  0.13520000  0.19925000  0.54134000  1.0
  C  C116  1  0.65720000  0.05650000  0.17173000  1.0
  C  C117  1  0.33620000  0.03923000  0.06589000  1.0
  C  C118  1  0.63950000  0.35180000  0.87449000  1.0
  C  C119  1  0.70830000  0.18550000  0.85276000  1.0
  C  C120  1  0.67260000  0.25670000  0.88604000  1.0
  C  C121  1  0.67220000  0.23100000  0.92865000  1.0
  C  C122  1  0.60010000  0.41630000  0.90662000  1.0
  C  C123  1  0.16280000  0.16644000  0.16439000  1.0
  C  C124  1  0.31940000  0.32740000  0.05986000  1.0
  C  C125  1  0.63520000  0.30075000  0.95866000  1.0
  C  C126  1  0.84280000  0.55650000  0.82827000  1.0
  C  C127  1  0.16380000  0.53923000  0.93411000  1.0
  C  C128  1  0.86050000  0.85180000  0.12551000  1.0
  C  C129  1  0.79170000  0.68550000  0.14724000  1.0
  C  C130  1  0.82740000  0.75670000  0.11396000  1.0
  C  C131  1  0.82780000  0.73100000  0.07135000  1.0
  C  C132  1  0.89990000  0.91630000  0.09338000  1.0
  C  C133  1  0.33720000  0.66644000  0.83561000  1.0
  C  C134  1  0.18060000  0.82740000  0.94014000  1.0
  C  C135  1  0.86480000  0.80075000  0.04134000  1.0
  N  N136  1  0.75080000  0.05560000  0.29984000  1.0
  N  N137  1  0.37020000  0.37895000  0.46571000  1.0
  N  N138  1  0.73670000  0.13090000  0.67349000  1.0
  N  N139  1  0.59680000  0.39247000  0.55181000  1.0
  N  N140  1  0.23530000  0.02769000  0.46067000  1.0
  N  N141  1  0.12090000  0.13005000  0.30460000  1.0
  N  N142  1  0.74920000  0.55560000  0.70016000  1.0
  N  N143  1  0.12980000  0.87895000  0.53429000  1.0
  N  N144  1  0.76330000  0.63090000  0.32651000  1.0
  N  N145  1  0.90320000  0.89247000  0.44819000  1.0
  N  N146  1  0.26470000  0.52769000  0.53933000  1.0
  N  N147  1  0.37910000  0.63005000  0.69540000  1.0
  N  N148  1  0.24920000  0.94440000  0.79984000  1.0
  N  N149  1  0.62980000  0.62105000  0.96571000  1.0
  N  N150  1  0.26330000  0.86910000  0.17349000  1.0
  N  N151  1  0.40320000  0.60753000  0.05181000  1.0
  N  N152  1  0.76470000  0.97231000  0.96067000  1.0
  N  N153  1  0.87910000  0.86995000  0.80460000  1.0
  N  N154  1  0.25080000  0.44440000  0.20016000  1.0
  N  N155  1  0.87020000  0.12105000  0.03429000  1.0
  N  N156  1  0.23670000  0.36910000  0.82651000  1.0
  N  N157  1  0.09680000  0.10753000  0.94819000  1.0
  N  N158  1  0.73530000  0.47231000  0.03933000  1.0
  N  N159  1  0.62090000  0.36995000  0.19540000  1.0
  N  N160  1  0.24920000  0.94440000  0.70016000  1.0
  N  N161  1  0.62980000  0.62105000  0.53429000  1.0
  N  N162  1  0.26330000  0.86910000  0.32651000  1.0
  N  N163  1  0.40320000  0.60753000  0.44819000  1.0
  N  N164  1  0.76470000  0.97231000  0.53933000  1.0
  N  N165  1  0.87910000  0.86995000  0.69540000  1.0
  N  N166  1  0.25080000  0.44440000  0.29984000  1.0
  N  N167  1  0.87020000  0.12105000  0.46571000  1.0
  N  N168  1  0.23670000  0.36910000  0.67349000  1.0
  N  N169  1  0.09680000  0.10753000  0.55181000  1.0
  N  N170  1  0.73530000  0.47231000  0.46067000  1.0
  N  N171  1  0.62090000  0.36995000  0.30460000  1.0
  N  N172  1  0.75080000  0.05560000  0.20016000  1.0
  N  N173  1  0.37020000  0.37895000  0.03429000  1.0
  N  N174  1  0.73670000  0.13090000  0.82651000  1.0
  N  N175  1  0.59680000  0.39247000  0.94819000  1.0
  N  N176  1  0.23530000  0.02769000  0.03933000  1.0
  N  N177  1  0.12090000  0.13005000  0.19540000  1.0
  N  N178  1  0.74920000  0.55560000  0.79984000  1.0
  N  N179  1  0.12980000  0.87895000  0.96571000  1.0
  N  N180  1  0.76330000  0.63090000  0.17349000  1.0
  N  N181  1  0.90320000  0.89247000  0.05181000  1.0
  N  N182  1  0.26470000  0.52769000  0.96067000  1.0
  N  N183  1  0.37910000  0.63005000  0.80460000  1.0
