# generated using pymatgen
data_Dy2CuH4C10N4O9
_symmetry_space_group_name_H-M   'P 1'
_cell_length_a   7.00120000
_cell_length_b   16.00200000
_cell_length_c   16.00200000
_cell_angle_alpha   62.08920000
_cell_angle_beta   81.61410000
_cell_angle_gamma   98.38590000
_symmetry_Int_Tables_number   1
_chemical_formula_structural   Dy2CuH4C10N4O9
_chemical_formula_sum   'Dy6 Cu3 H12 C30 N12 O27'
_cell_volume   1519.54954061
_cell_formula_units_Z   3
loop_
 _symmetry_equiv_pos_site_id
 _symmetry_equiv_pos_as_xyz
  1  'x, y, z'
loop_
 _atom_site_type_symbol
 _atom_site_label
 _atom_site_symmetry_multiplicity
 _atom_site_fract_x
 _atom_site_fract_y
 _atom_site_fract_z
 _atom_site_occupancy
  Dy  Dy0  1  0.28898000  0.06436000  0.84684000  1.0
  Dy  Dy1  1  0.13582000  0.84684000  0.08880000  1.0
  Dy  Dy2  1  0.22462000  0.08880000  0.06436000  1.0
  Dy  Dy3  1  0.71102000  0.93564000  0.15316000  1.0
  Dy  Dy4  1  0.86418000  0.15316000  0.91120000  1.0
  Dy  Dy5  1  0.77538000  0.91120000  0.93564000  1.0
  Cu  Cu6  1  0.50000000  0.00000000  0.50000000  1.0
  Cu  Cu7  1  0.00000000  0.50000000  0.50000000  1.0
  Cu  Cu8  1  0.50000000  0.50000000  0.00000000  1.0
  H  H9  1  0.84540000  0.91120000  0.57710000  1.0
  H  H10  1  0.95600000  0.87510000  0.71560000  1.0
  H  H11  1  0.42250000  0.57710000  0.51170000  1.0
  H  H12  1  0.67160000  0.71560000  0.40930000  1.0
  H  H13  1  0.93420000  0.51170000  0.91120000  1.0
  H  H14  1  0.08090000  0.40930000  0.87510000  1.0
  H  H15  1  0.15460000  0.08880000  0.42290000  1.0
  H  H16  1  0.04400000  0.12490000  0.28440000  1.0
  H  H17  1  0.57750000  0.42290000  0.48830000  1.0
  H  H18  1  0.32840000  0.28440000  0.59070000  1.0
  H  H19  1  0.06580000  0.48830000  0.08880000  1.0
  H  H20  1  0.91910000  0.59070000  0.12490000  1.0
  C  C21  1  0.61450000  0.97010000  0.75660000  1.0
  C  C22  1  0.54110000  0.98740000  0.67370000  1.0
  C  C23  1  0.78280000  0.92480000  0.62310000  1.0
  C  C24  1  0.85040000  0.90480000  0.70540000  1.0
  C  C25  1  0.36750000  0.03030000  0.64880000  1.0
  C  C26  1  0.37110000  0.75660000  0.27330000  1.0
  C  C27  1  0.21480000  0.67370000  0.33890000  1.0
  C  C28  1  0.40590000  0.62310000  0.45210000  1.0
  C  C29  1  0.55580000  0.70540000  0.38980000  1.0
  C  C30  1  0.01630000  0.64880000  0.32090000  1.0
  C  C31  1  0.64440000  0.27330000  0.97010000  1.0
  C  C32  1  0.55370000  0.33890000  0.98740000  1.0
  C  C33  1  0.85800000  0.45210000  0.92480000  1.0
  C  C34  1  0.94560000  0.38980000  0.90480000  1.0
  C  C35  1  0.33720000  0.32090000  0.03030000  1.0
  C  C36  1  0.38550000  0.02990000  0.24340000  1.0
  C  C37  1  0.45890000  0.01260000  0.32630000  1.0
  C  C38  1  0.21720000  0.07520000  0.37690000  1.0
  C  C39  1  0.14960000  0.09520000  0.29460000  1.0
  C  C40  1  0.63250000  0.96970000  0.35120000  1.0
  C  C41  1  0.62890000  0.24340000  0.72670000  1.0
  C  C42  1  0.78520000  0.32630000  0.66110000  1.0
  C  C43  1  0.59410000  0.37690000  0.54790000  1.0
  C  C44  1  0.44420000  0.29460000  0.61020000  1.0
  C  C45  1  0.98370000  0.35120000  0.67910000  1.0
  C  C46  1  0.35560000  0.72670000  0.02990000  1.0
  C  C47  1  0.44630000  0.66110000  0.01260000  1.0
  C  C48  1  0.14200000  0.54790000  0.07520000  1.0
  C  C49  1  0.05440000  0.61020000  0.09520000  1.0
  C  C50  1  0.66280000  0.67910000  0.96970000  1.0
  N  N51  1  0.76950000  0.92670000  0.77080000  1.0
  N  N52  1  0.62660000  0.96410000  0.60990000  1.0
  N  N53  1  0.54030000  0.77080000  0.30250000  1.0
  N  N54  1  0.23650000  0.60990000  0.42600000  1.0
  N  N55  1  0.84280000  0.30250000  0.92670000  1.0
  N  N56  1  0.66250000  0.42600000  0.96410000  1.0
  N  N57  1  0.23050000  0.07330000  0.22920000  1.0
  N  N58  1  0.37340000  0.03590000  0.39010000  1.0
  N  N59  1  0.45970000  0.22920000  0.69750000  1.0
  N  N60  1  0.76350000  0.39010000  0.57400000  1.0
  N  N61  1  0.15720000  0.69750000  0.07330000  1.0
  N  N62  1  0.33750000  0.57400000  0.03590000  1.0
  O  O63  1  0.54828000  0.99113000  0.82149000  1.0
  O  O64  1  0.27199000  0.05107000  0.70500000  1.0
  O  O65  1  0.32417000  0.04037000  0.57136000  1.0
  O  O66  1  0.10676000  0.90130000  0.92372000  1.0
  O  O67  1  0.36977000  0.82149000  0.18738000  1.0
  O  O68  1  0.97699000  0.70500000  0.24393000  1.0
  O  O69  1  0.89553000  0.57136000  0.38827000  1.0
  O  O70  1  0.03048000  0.92372000  0.17498000  1.0
  O  O71  1  0.55715000  0.18738000  0.99113000  1.0
  O  O72  1  0.22092000  0.24393000  0.05107000  1.0
  O  O73  1  0.28380000  0.38827000  0.04037000  1.0
  O  O74  1  0.20546000  0.17498000  0.90130000  1.0
  O  O75  1  0.45172000  0.00887000  0.17851000  1.0
  O  O76  1  0.72801000  0.94893000  0.29500000  1.0
  O  O77  1  0.67583000  0.95963000  0.42864000  1.0
  O  O78  1  0.89324000  0.09870000  0.07628000  1.0
  O  O79  1  0.63023000  0.17851000  0.81262000  1.0
  O  O80  1  0.02301000  0.29500000  0.75607000  1.0
  O  O81  1  0.10447000  0.42864000  0.61173000  1.0
  O  O82  1  0.96952000  0.07628000  0.82502000  1.0
  O  O83  1  0.44285000  0.81262000  0.00887000  1.0
  O  O84  1  0.77908000  0.75607000  0.94893000  1.0
  O  O85  1  0.71620000  0.61173000  0.95963000  1.0
  O  O86  1  0.79454000  0.82502000  0.09870000  1.0
  O  O87  1  0.31923000  0.00000000  0.00000000  1.0
  O  O88  1  0.68077000  0.00000000  0.00000000  1.0
  O  O89  1  0.00000000  0.00000000  0.00000000  1.0
