# generated using pymatgen
data_Ho2CuH4C10N4O9
_symmetry_space_group_name_H-M   'P 1'
_cell_length_a   6.98160000
_cell_length_b   15.96690000
_cell_length_c   15.96690000
_cell_angle_alpha   62.08670000
_cell_angle_beta   81.61920000
_cell_angle_gamma   98.38080000
_symmetry_Int_Tables_number   1
_chemical_formula_structural   Ho2CuH4C10N4O9
_chemical_formula_sum   'Ho6 Cu3 H12 C30 N12 O27'
_cell_volume   1508.69483240
_cell_formula_units_Z   3
loop_
 _symmetry_equiv_pos_site_id
 _symmetry_equiv_pos_as_xyz
  1  'x, y, z'
loop_
 _atom_site_type_symbol
 _atom_site_label
 _atom_site_symmetry_multiplicity
 _atom_site_fract_x
 _atom_site_fract_y
 _atom_site_fract_z
 _atom_site_occupancy
  Ho  Ho0  1  0.28915000  0.06431000  0.84704000  1.0
  Ho  Ho1  1  0.13619000  0.84704000  0.08865000  1.0
  Ho  Ho2  1  0.22484000  0.08865000  0.06431000  1.0
  Ho  Ho3  1  0.71085000  0.93569000  0.15296000  1.0
  Ho  Ho4  1  0.86381000  0.15296000  0.91135000  1.0
  Ho  Ho5  1  0.77516000  0.91135000  0.93569000  1.0
  Cu  Cu6  1  0.50000000  0.00000000  0.50000000  1.0
  Cu  Cu7  1  0.00000000  0.50000000  0.50000000  1.0
  Cu  Cu8  1  0.50000000  0.50000000  0.00000000  1.0
  H  H9  1  0.84580000  0.91000000  0.57780000  1.0
  H  H10  1  0.95880000  0.87550000  0.71610000  1.0
  H  H11  1  0.42360000  0.57780000  0.51220000  1.0
  H  H12  1  0.67490000  0.71610000  0.40840000  1.0
  H  H13  1  0.93580000  0.51220000  0.91000000  1.0
  H  H14  1  0.08330000  0.40840000  0.87550000  1.0
  H  H15  1  0.15420000  0.09000000  0.42220000  1.0
  H  H16  1  0.04120000  0.12450000  0.28390000  1.0
  H  H17  1  0.57640000  0.42220000  0.48780000  1.0
  H  H18  1  0.32510000  0.28390000  0.59160000  1.0
  H  H19  1  0.06420000  0.48780000  0.09000000  1.0
  H  H20  1  0.91670000  0.59160000  0.12450000  1.0
  C  C21  1  0.61450000  0.96990000  0.75740000  1.0
  C  C22  1  0.54060000  0.98700000  0.67430000  1.0
  C  C23  1  0.78360000  0.92420000  0.62350000  1.0
  C  C24  1  0.85190000  0.90450000  0.70610000  1.0
  C  C25  1  0.36650000  0.02900000  0.65000000  1.0
  C  C26  1  0.37190000  0.75740000  0.27270000  1.0
  C  C27  1  0.21490000  0.67430000  0.33870000  1.0
  C  C28  1  0.40710000  0.62350000  0.45230000  1.0
  C  C29  1  0.55800000  0.70610000  0.38940000  1.0
  C  C30  1  0.01650000  0.65000000  0.32100000  1.0
  C  C31  1  0.64460000  0.27270000  0.96990000  1.0
  C  C32  1  0.55360000  0.33870000  0.98700000  1.0
  C  C33  1  0.85940000  0.45230000  0.92420000  1.0
  C  C34  1  0.94740000  0.38940000  0.90450000  1.0
  C  C35  1  0.33750000  0.32100000  0.02900000  1.0
  C  C36  1  0.38550000  0.03010000  0.24260000  1.0
  C  C37  1  0.45940000  0.01300000  0.32570000  1.0
  C  C38  1  0.21640000  0.07580000  0.37650000  1.0
  C  C39  1  0.14810000  0.09550000  0.29390000  1.0
  C  C40  1  0.63350000  0.97100000  0.35000000  1.0
  C  C41  1  0.62810000  0.24260000  0.72730000  1.0
  C  C42  1  0.78510000  0.32570000  0.66130000  1.0
  C  C43  1  0.59290000  0.37650000  0.54770000  1.0
  C  C44  1  0.44200000  0.29390000  0.61060000  1.0
  C  C45  1  0.98350000  0.35000000  0.67900000  1.0
  C  C46  1  0.35540000  0.72730000  0.03010000  1.0
  C  C47  1  0.44640000  0.66130000  0.01300000  1.0
  C  C48  1  0.14060000  0.54770000  0.07580000  1.0
  C  C49  1  0.05260000  0.61060000  0.09550000  1.0
  C  C50  1  0.66250000  0.67900000  0.97100000  1.0
  N  N51  1  0.76926000  0.92606000  0.77188000  1.0
  N  N52  1  0.62760000  0.96370000  0.61020000  1.0
  N  N53  1  0.54114000  0.77188000  0.30206000  1.0
  N  N54  1  0.23780000  0.61020000  0.42610000  1.0
  N  N55  1  0.84320000  0.30206000  0.92606000  1.0
  N  N56  1  0.66390000  0.42610000  0.96370000  1.0
  N  N57  1  0.23074000  0.07394000  0.22812000  1.0
  N  N58  1  0.37240000  0.03630000  0.38980000  1.0
  N  N59  1  0.45886000  0.22812000  0.69794000  1.0
  N  N60  1  0.76220000  0.38980000  0.57390000  1.0
  N  N61  1  0.15680000  0.69794000  0.07394000  1.0
  N  N62  1  0.33610000  0.57390000  0.03630000  1.0
  O  O63  1  0.54781000  0.99116000  0.82273000  1.0
  O  O64  1  0.27046000  0.05082000  0.70554000  1.0
  O  O65  1  0.32350000  0.04090000  0.57130000  1.0
  O  O66  1  0.20406000  0.17334000  0.90186000  1.0
  O  O67  1  0.37054000  0.82273000  0.18611000  1.0
  O  O68  1  0.97600000  0.70554000  0.24364000  1.0
  O  O69  1  0.89480000  0.57130000  0.38780000  1.0
  O  O70  1  0.10592000  0.90186000  0.92480000  1.0
  O  O71  1  0.55665000  0.18611000  0.99116000  1.0
  O  O72  1  0.21964000  0.24364000  0.05082000  1.0
  O  O73  1  0.28260000  0.38780000  0.04090000  1.0
  O  O74  1  0.03072000  0.92480000  0.17334000  1.0
  O  O75  1  0.45219000  0.00884000  0.17727000  1.0
  O  O76  1  0.72954000  0.94918000  0.29446000  1.0
  O  O77  1  0.67650000  0.95910000  0.42870000  1.0
  O  O78  1  0.79594000  0.82666000  0.09814000  1.0
  O  O79  1  0.62946000  0.17727000  0.81389000  1.0
  O  O80  1  0.02400000  0.29446000  0.75636000  1.0
  O  O81  1  0.10520000  0.42870000  0.61220000  1.0
  O  O82  1  0.89408000  0.09814000  0.07520000  1.0
  O  O83  1  0.44335000  0.81389000  0.00884000  1.0
  O  O84  1  0.78036000  0.75636000  0.94918000  1.0
  O  O85  1  0.71740000  0.61220000  0.95910000  1.0
  O  O86  1  0.96928000  0.07520000  0.82666000  1.0
  O  O87  1  0.32017000  0.00000000  0.00000000  1.0
  O  O88  1  0.67983000  0.00000000  0.00000000  1.0
  O  O89  1  0.00000000  0.00000000  0.00000000  1.0
