# generated using pymatgen
data_NdH8(C3O2)3
_symmetry_space_group_name_H-M   'P 1'
_cell_length_a   8.72530000
_cell_length_b   12.78090000
_cell_length_c   19.47460000
_cell_angle_alpha   90.00000000
_cell_angle_beta   90.00000000
_cell_angle_gamma   109.95900000
_symmetry_Int_Tables_number   1
_chemical_formula_structural   NdH8(C3O2)3
_chemical_formula_sum   'Nd4 H32 C36 O24'
_cell_volume   2041.31089945
_cell_formula_units_Z   4
loop_
 _symmetry_equiv_pos_site_id
 _symmetry_equiv_pos_as_xyz
  1  'x, y, z'
loop_
 _atom_site_type_symbol
 _atom_site_label
 _atom_site_symmetry_multiplicity
 _atom_site_fract_x
 _atom_site_fract_y
 _atom_site_fract_z
 _atom_site_occupancy
  Nd  Nd0  1  0.25807000  0.51614000  0.50000000  1.0
  Nd  Nd1  1  0.74193000  0.48386000  0.00000000  1.0
  Nd  Nd2  1  0.74193000  0.48386000  0.50000000  1.0
  Nd  Nd3  1  0.25807000  0.51614000  0.00000000  1.0
  H  H4  1  0.23900000  0.90320000  0.54160000  1.0
  H  H5  1  0.66280000  0.66600000  0.68680000  1.0
  H  H6  1  0.66020000  0.54040000  0.68400000  1.0
  H  H7  1  0.76100000  0.09680000  0.04160000  1.0
  H  H8  1  0.33720000  0.33400000  0.18680000  1.0
  H  H9  1  0.33980000  0.45960000  0.18400000  1.0
  H  H10  1  0.33580000  0.09680000  0.95840000  1.0
  H  H11  1  0.99680000  0.33400000  0.81320000  1.0
  H  H12  1  0.11980000  0.45960000  0.81600000  1.0
  H  H13  1  0.66420000  0.90320000  0.45840000  1.0
  H  H14  1  0.00320000  0.66600000  0.31320000  1.0
  H  H15  1  0.88020000  0.54040000  0.31600000  1.0
  H  H16  1  0.76100000  0.09680000  0.45840000  1.0
  H  H17  1  0.33720000  0.33400000  0.31320000  1.0
  H  H18  1  0.33980000  0.45960000  0.31600000  1.0
  H  H19  1  0.23900000  0.90320000  0.95840000  1.0
  H  H20  1  0.66280000  0.66600000  0.81320000  1.0
  H  H21  1  0.66020000  0.54040000  0.81600000  1.0
  H  H22  1  0.66420000  0.90320000  0.04160000  1.0
  H  H23  1  0.00320000  0.66600000  0.18680000  1.0
  H  H24  1  0.88020000  0.54040000  0.18400000  1.0
  H  H25  1  0.33580000  0.09680000  0.54160000  1.0
  H  H26  1  0.99680000  0.33400000  0.68680000  1.0
  H  H27  1  0.11980000  0.45960000  0.68400000  1.0
  H  H28  1  0.41280000  0.60420000  0.75000000  1.0
  H  H29  1  0.42030000  0.48100000  0.75000000  1.0
  H  H30  1  0.58720000  0.39580000  0.25000000  1.0
  H  H31  1  0.57970000  0.51900000  0.25000000  1.0
  H  H32  1  0.80860000  0.39580000  0.75000000  1.0
  H  H33  1  0.93930000  0.51900000  0.75000000  1.0
  H  H34  1  0.19140000  0.60420000  0.25000000  1.0
  H  H35  1  0.06070000  0.48100000  0.25000000  1.0
  C  C36  1  0.34531000  0.94242000  0.52466000  1.0
  C  C37  1  0.49228000  0.56876000  0.61974000  1.0
  C  C38  1  0.59026000  0.58732000  0.68508000  1.0
  C  C39  1  0.65469000  0.05758000  0.02466000  1.0
  C  C40  1  0.50772000  0.43124000  0.11974000  1.0
  C  C41  1  0.40974000  0.41268000  0.18508000  1.0
  C  C42  1  0.40289000  0.05758000  0.97534000  1.0
  C  C43  1  0.92352000  0.43124000  0.88026000  1.0
  C  C44  1  0.00294000  0.41268000  0.81492000  1.0
  C  C45  1  0.59711000  0.94242000  0.47534000  1.0
  C  C46  1  0.07648000  0.56876000  0.38026000  1.0
  C  C47  1  0.99706000  0.58732000  0.31492000  1.0
  C  C48  1  0.65469000  0.05758000  0.47534000  1.0
  C  C49  1  0.50772000  0.43124000  0.38026000  1.0
  C  C50  1  0.40974000  0.41268000  0.31492000  1.0
  C  C51  1  0.34531000  0.94242000  0.97534000  1.0
  C  C52  1  0.49228000  0.56876000  0.88026000  1.0
  C  C53  1  0.59026000  0.58732000  0.81492000  1.0
  C  C54  1  0.59711000  0.94242000  0.02466000  1.0
  C  C55  1  0.07648000  0.56876000  0.11974000  1.0
  C  C56  1  0.99706000  0.58732000  0.18508000  1.0
  C  C57  1  0.40289000  0.05758000  0.52466000  1.0
  C  C58  1  0.92352000  0.43124000  0.61974000  1.0
  C  C59  1  0.00294000  0.41268000  0.68508000  1.0
  C  C60  1  0.37958000  0.75916000  0.50000000  1.0
  C  C61  1  0.44175000  0.88350000  0.50000000  1.0
  C  C62  1  0.62042000  0.24084000  0.00000000  1.0
  C  C63  1  0.55825000  0.11650000  0.00000000  1.0
  C  C64  1  0.62042000  0.24084000  0.50000000  1.0
  C  C65  1  0.55825000  0.11650000  0.50000000  1.0
  C  C66  1  0.37958000  0.75916000  0.00000000  1.0
  C  C67  1  0.44175000  0.88350000  0.00000000  1.0
  C  C68  1  0.48764000  0.56088000  0.75000000  1.0
  C  C69  1  0.51236000  0.43912000  0.25000000  1.0
  C  C70  1  0.92676000  0.43912000  0.75000000  1.0
  C  C71  1  0.07324000  0.56088000  0.25000000  1.0
  O  O72  1  0.23509000  0.70698000  0.51954000  1.0
  O  O73  1  0.35586000  0.58272000  0.61886000  1.0
  O  O74  1  0.54654000  0.53908000  0.56543000  1.0
  O  O75  1  0.76491000  0.29302000  0.01954000  1.0
  O  O76  1  0.64414000  0.41728000  0.11886000  1.0
  O  O77  1  0.45346000  0.46092000  0.06543000  1.0
  O  O78  1  0.52811000  0.29302000  0.98046000  1.0
  O  O79  1  0.77314000  0.41728000  0.88114000  1.0
  O  O80  1  0.00746000  0.46092000  0.93457000  1.0
  O  O81  1  0.47189000  0.70698000  0.48046000  1.0
  O  O82  1  0.22686000  0.58272000  0.38114000  1.0
  O  O83  1  0.99254000  0.53908000  0.43457000  1.0
  O  O84  1  0.76491000  0.29302000  0.48046000  1.0
  O  O85  1  0.64414000  0.41728000  0.38114000  1.0
  O  O86  1  0.45346000  0.46092000  0.43457000  1.0
  O  O87  1  0.23509000  0.70698000  0.98046000  1.0
  O  O88  1  0.35586000  0.58272000  0.88114000  1.0
  O  O89  1  0.54654000  0.53908000  0.93457000  1.0
  O  O90  1  0.47189000  0.70698000  0.01954000  1.0
  O  O91  1  0.22686000  0.58272000  0.11886000  1.0
  O  O92  1  0.99254000  0.53908000  0.06543000  1.0
  O  O93  1  0.52811000  0.29302000  0.51954000  1.0
  O  O94  1  0.77314000  0.41728000  0.61886000  1.0
  O  O95  1  0.00746000  0.46092000  0.56543000  1.0
