# generated using pymatgen
data_CdH2(C3O2)2
_symmetry_space_group_name_H-M   'P 1'
_cell_length_a   10.24090000
_cell_length_b   19.61020000
_cell_length_c   37.78700000
_cell_angle_alpha   89.02500000
_cell_angle_beta   89.26300000
_cell_angle_gamma   76.47100000
_symmetry_Int_Tables_number   1
_chemical_formula_structural   CdH2(C3O2)2
_chemical_formula_sum   'Cd24 H48 C144 O96'
_cell_volume   7376.66792447
_cell_formula_units_Z   24
loop_
 _symmetry_equiv_pos_site_id
 _symmetry_equiv_pos_as_xyz
  1  'x, y, z'
loop_
 _atom_site_type_symbol
 _atom_site_label
 _atom_site_symmetry_multiplicity
 _atom_site_fract_x
 _atom_site_fract_y
 _atom_site_fract_z
 _atom_site_occupancy
  Cd  Cd0  1  0.85826000  0.68939000  0.60924000  1.0
  Cd  Cd1  1  0.18560000  0.69537000  0.61133000  1.0
  Cd  Cd2  1  0.35713000  0.16910000  0.89654000  1.0
  Cd  Cd3  1  0.68971000  0.17787000  0.89286000  1.0
  Cd  Cd4  1  0.20180000  0.76985000  0.84117000  1.0
  Cd  Cd5  1  0.51058000  0.63324000  0.81921000  1.0
  Cd  Cd6  1  0.78302000  0.59030000  0.88956000  1.0
  Cd  Cd7  1  0.00094000  0.71024000  0.91118000  1.0
  Cd  Cd8  1  0.55603000  0.16154000  0.58978000  1.0
  Cd  Cd9  1  0.72134000  0.29192000  0.62796000  1.0
  Cd  Cd10  1  0.01294000  0.23097000  0.68483000  1.0
  Cd  Cd11  1  0.32963000  0.10111000  0.65567000  1.0
  Cd  Cd12  1  0.14174000  0.31061000  0.39076000  1.0
  Cd  Cd13  1  0.81440000  0.30463000  0.38867000  1.0
  Cd  Cd14  1  0.64287000  0.83090000  0.10346000  1.0
  Cd  Cd15  1  0.31029000  0.82213000  0.10714000  1.0
  Cd  Cd16  1  0.79820000  0.23015000  0.15883000  1.0
  Cd  Cd17  1  0.48942000  0.36676000  0.18079000  1.0
  Cd  Cd18  1  0.21698000  0.40970000  0.11044000  1.0
  Cd  Cd19  1  0.99906000  0.28976000  0.08882000  1.0
  Cd  Cd20  1  0.44397000  0.83846000  0.41022000  1.0
  Cd  Cd21  1  0.27866000  0.70808000  0.37204000  1.0
  Cd  Cd22  1  0.98706000  0.76903000  0.31517000  1.0
  Cd  Cd23  1  0.67037000  0.89889000  0.34433000  1.0
  H  H24  1  0.19440000  0.65710000  0.71910000  1.0
  H  H25  1  0.04070000  0.63930000  0.81740000  1.0
  H  H26  1  0.80430000  0.65160000  0.73170000  1.0
  H  H27  1  0.10350000  0.93030000  0.63420000  1.0
  H  H28  1  0.80080000  0.09790000  0.65300000  1.0
  H  H29  1  0.72070000  0.91130000  0.63300000  1.0
  H  H30  1  0.71970000  0.19720000  0.77470000  1.0
  H  H31  1  0.49730000  0.21930000  0.68570000  1.0
  H  H32  1  0.32740000  0.19580000  0.78070000  1.0
  H  H33  1  0.80600000  0.95880000  0.87550000  1.0
  H  H34  1  0.73380000  0.77410000  0.84310000  1.0
  H  H35  1  0.42470000  0.93630000  0.86860000  1.0
  H  H36  1  0.65300000  0.79390000  0.99410000  1.0
  H  H37  1  0.25680000  0.79870000  0.98780000  1.0
  H  H38  1  0.50440000  0.72760000  0.90500000  1.0
  H  H39  1  0.31180000  0.58600000  0.88550000  1.0
  H  H40  1  0.56870000  0.39460000  0.89180000  1.0
  H  H41  1  0.16440000  0.40840000  0.89400000  1.0
  H  H42  1  0.17250000  0.75190000  0.50170000  1.0
  H  H43  1  0.77280000  0.76520000  0.49190000  1.0
  H  H44  1  0.97970000  0.83050000  0.41160000  1.0
  H  H45  1  0.95240000  0.46990000  0.60640000  1.0
  H  H46  1  0.35270000  0.45510000  0.59900000  1.0
  H  H47  1  0.21650000  0.28150000  0.61730000  1.0
  H  H48  1  0.80560000  0.34290000  0.28090000  1.0
  H  H49  1  0.95930000  0.36070000  0.18260000  1.0
  H  H50  1  0.19570000  0.34840000  0.26830000  1.0
  H  H51  1  0.89650000  0.06970000  0.36580000  1.0
  H  H52  1  0.19920000  0.90210000  0.34700000  1.0
  H  H53  1  0.27930000  0.08870000  0.36700000  1.0
  H  H54  1  0.28030000  0.80280000  0.22530000  1.0
  H  H55  1  0.50270000  0.78070000  0.31430000  1.0
  H  H56  1  0.67260000  0.80420000  0.21930000  1.0
  H  H57  1  0.19400000  0.04120000  0.12450000  1.0
  H  H58  1  0.26620000  0.22590000  0.15690000  1.0
  H  H59  1  0.57530000  0.06370000  0.13140000  1.0
  H  H60  1  0.34700000  0.20610000  0.00590000  1.0
  H  H61  1  0.74320000  0.20130000  0.01220000  1.0
  H  H62  1  0.49560000  0.27240000  0.09500000  1.0
  H  H63  1  0.68820000  0.41400000  0.11450000  1.0
  H  H64  1  0.43130000  0.60540000  0.10820000  1.0
  H  H65  1  0.83560000  0.59160000  0.10600000  1.0
  H  H66  1  0.82750000  0.24810000  0.49830000  1.0
  H  H67  1  0.22720000  0.23480000  0.50810000  1.0
  H  H68  1  0.02030000  0.16950000  0.58840000  1.0
  H  H69  1  0.04760000  0.53010000  0.39360000  1.0
  H  H70  1  0.64730000  0.54490000  0.40100000  1.0
  H  H71  1  0.78350000  0.71850000  0.38270000  1.0
  C  C72  1  0.99520000  0.65770000  0.71920000  1.0
  C  C73  1  0.12020000  0.65460000  0.73400000  1.0
  C  C74  1  0.13700000  0.64800000  0.77030000  1.0
  C  C75  1  0.02950000  0.64250000  0.79250000  1.0
  C  C76  1  0.90630000  0.64190000  0.77780000  1.0
  C  C77  1  0.88960000  0.65050000  0.74150000  1.0
  C  C78  1  0.97830000  0.66666667  0.68000000  1.0
  C  C79  1  0.27320000  0.64680000  0.78550000  1.0
  C  C80  1  0.79150000  0.63250000  0.80070000  1.0
  C  C81  1  0.92130000  0.90690000  0.63200000  1.0
  C  C82  1  0.01010000  0.95010000  0.63710000  1.0
  C  C83  1  0.97060000  0.01900000  0.64570000  1.0
  C  C84  1  0.83200000  0.04950000  0.64810000  1.0
  C  C85  1  0.74330000  0.00870000  0.64310000  1.0
  C  C86  1  0.78530000  0.93850000  0.63570000  1.0
  C  C87  1  0.96810000  0.83050000  0.62390000  1.0
  C  C88  1  0.07180000  0.06280000  0.65350000  1.0
  C  C89  1  0.59330000  0.03880000  0.64530000  1.0
  C  C90  1  0.52410000  0.19480000  0.78440000  1.0
  C  C91  1  0.63560000  0.20070000  0.76360000  1.0
  C  C92  1  0.62610000  0.21160000  0.72750000  1.0
  C  C93  1  0.50410000  0.21440000  0.71070000  1.0
  C  C94  1  0.39220000  0.20980000  0.73140000  1.0
  C  C95  1  0.40430000  0.19960000  0.76720000  1.0
  C  C96  1  0.53460000  0.18270000  0.82360000  1.0
  C  C97  1  0.74500000  0.22060000  0.70640000  1.0
  C  C98  1  0.26000000  0.21370000  0.71380000  1.0
  C  C99  1  0.60510000  0.95830000  0.87470000  1.0
  C  C100  1  0.74460000  0.93060000  0.87070000  1.0
  C  C101  1  0.79060000  0.86360000  0.85990000  1.0
  C  C102  1  0.70080000  0.82080000  0.85080000  1.0
  C  C103  1  0.56510000  0.84960000  0.85370000  1.0
  C  C104  1  0.51870000  0.91770000  0.86610000  1.0
  C  C105  1  0.55890000  0.03360000  0.88690000  1.0
  C  C106  1  0.94040000  0.83240000  0.85560000  1.0
  C  C107  1  0.46650000  0.80540000  0.84450000  1.0
  C  C108  1  0.59860000  0.75980000  0.94640000  1.0
  C  C109  1  0.57880000  0.78590000  0.98140000  1.0
  C  C110  1  0.45190000  0.79980000  0.99730000  1.0
  C  C111  1  0.34430000  0.78900000  0.97750000  1.0
  C  C112  1  0.36330000  0.76380000  0.94260000  1.0
  C  C113  1  0.49060000  0.74740000  0.92790000  1.0
  C  C114  1  0.73800000  0.74360000  0.93090000  1.0
  C  C115  1  0.43440000  0.81880000  0.03490000  1.0
  C  C116  1  0.24280000  0.75020000  0.92400000  1.0
  C  C117  1  0.21810000  0.50440000  0.88840000  1.0
  C  C118  1  0.32650000  0.53630000  0.88660000  1.0
  C  C119  1  0.45580000  0.49430000  0.88630000  1.0
  C  C120  1  0.47960000  0.42250000  0.89010000  1.0
  C  C121  1  0.36760000  0.39080000  0.89140000  1.0
  C  C122  1  0.23820000  0.42990000  0.89170000  1.0
  C  C123  1  0.07470000  0.54920000  0.88850000  1.0
  C  C124  1  0.57310000  0.52940000  0.88470000  1.0
  C  C125  1  0.39610000  0.31190000  0.89500000  1.0
  C  C126  1  0.09610000  0.79110000  0.45450000  1.0
  C  C127  1  0.09240000  0.76410000  0.48830000  1.0
  C  C128  1  0.97110000  0.75440000  0.50320000  1.0
  C  C129  1  0.85470000  0.77310000  0.48260000  1.0
  C  C130  1  0.85550000  0.80230000  0.44970000  1.0
  C  C131  1  0.97770000  0.81110000  0.43480000  1.0
  C  C132  1  0.22470000  0.80260000  0.43940000  1.0
  C  C133  1  0.96880000  0.72650000  0.54040000  1.0
  C  C134  1  0.72860000  0.82570000  0.42910000  1.0
  C  C135  1  0.06680000  0.37100000  0.61160000  1.0
  C  C136  1  0.04230000  0.44280000  0.60680000  1.0
  C  C137  1  0.14770000  0.47580000  0.60270000  1.0
  C  C138  1  0.27950000  0.43360000  0.60270000  1.0
  C  C139  1  0.30500000  0.36310000  0.60780000  1.0
  C  C140  1  0.19920000  0.33070000  0.61290000  1.0
  C  C141  1  0.95160000  0.33820000  0.61620000  1.0
  C  C142  1  0.12140000  0.55440000  0.60000000  1.0
  C  C143  1  0.44700000  0.32100000  0.60970000  1.0
  C  C144  1  0.00480000  0.34230000  0.28080000  1.0
  C  C145  1  0.87980000  0.34540000  0.26600000  1.0
  C  C146  1  0.86300000  0.35200000  0.22970000  1.0
  C  C147  1  0.97050000  0.35750000  0.20750000  1.0
  C  C148  1  0.09370000  0.35810000  0.22220000  1.0
  C  C149  1  0.11040000  0.34950000  0.25850000  1.0
  C  C150  1  0.02170000  0.33340000  0.32000000  1.0
  C  C151  1  0.72680000  0.35320000  0.21450000  1.0
  C  C152  1  0.20850000  0.36750000  0.19930000  1.0
  C  C153  1  0.07870000  0.09310000  0.36800000  1.0
  C  C154  1  0.98990000  0.04990000  0.36290000  1.0
  C  C155  1  0.02940000  0.98100000  0.35430000  1.0
  C  C156  1  0.16800000  0.95050000  0.35190000  1.0
  C  C157  1  0.25670000  0.99130000  0.35690000  1.0
  C  C158  1  0.21470000  0.06150000  0.36430000  1.0
  C  C159  1  0.03190000  0.16950000  0.37610000  1.0
  C  C160  1  0.92820000  0.93720000  0.34650000  1.0
  C  C161  1  0.40670000  0.96120000  0.35470000  1.0
  C  C162  1  0.47590000  0.80520000  0.21560000  1.0
  C  C163  1  0.36440000  0.79930000  0.23640000  1.0
  C  C164  1  0.37390000  0.78840000  0.27250000  1.0
  C  C165  1  0.49590000  0.78560000  0.28930000  1.0
  C  C166  1  0.60780000  0.79020000  0.26860000  1.0
  C  C167  1  0.59570000  0.80040000  0.23280000  1.0
  C  C168  1  0.46540000  0.81730000  0.17640000  1.0
  C  C169  1  0.25500000  0.77940000  0.29360000  1.0
  C  C170  1  0.74000000  0.78630000  0.28620000  1.0
  C  C171  1  0.39490000  0.04170000  0.12530000  1.0
  C  C172  1  0.25540000  0.06940000  0.12930000  1.0
  C  C173  1  0.20940000  0.13640000  0.14010000  1.0
  C  C174  1  0.29920000  0.17920000  0.14920000  1.0
  C  C175  1  0.43490000  0.15040000  0.14630000  1.0
  C  C176  1  0.48130000  0.08230000  0.13390000  1.0
  C  C177  1  0.44110000  0.96640000  0.11310000  1.0
  C  C178  1  0.05960000  0.16760000  0.14440000  1.0
  C  C179  1  0.53350000  0.19460000  0.15550000  1.0
  C  C180  1  0.40140000  0.24020000  0.05360000  1.0
  C  C181  1  0.42120000  0.21410000  0.01860000  1.0
  C  C182  1  0.54810000  0.20020000  0.00270000  1.0
  C  C183  1  0.65570000  0.21100000  0.02250000  1.0
  C  C184  1  0.63670000  0.23620000  0.05740000  1.0
  C  C185  1  0.50940000  0.25260000  0.07210000  1.0
  C  C186  1  0.26200000  0.25640000  0.06910000  1.0
  C  C187  1  0.56560000  0.18120000  0.96510000  1.0
  C  C188  1  0.75720000  0.24980000  0.07600000  1.0
  C  C189  1  0.78190000  0.49560000  0.11160000  1.0
  C  C190  1  0.67350000  0.46370000  0.11340000  1.0
  C  C191  1  0.54420000  0.50570000  0.11370000  1.0
  C  C192  1  0.52040000  0.57750000  0.10990000  1.0
  C  C193  1  0.63240000  0.60920000  0.10860000  1.0
  C  C194  1  0.76180000  0.57010000  0.10830000  1.0
  C  C195  1  0.92530000  0.45080000  0.11150000  1.0
  C  C196  1  0.42690000  0.47060000  0.11530000  1.0
  C  C197  1  0.60390000  0.68810000  0.10500000  1.0
  C  C198  1  0.90390000  0.20890000  0.54550000  1.0
  C  C199  1  0.90760000  0.23590000  0.51170000  1.0
  C  C200  1  0.02890000  0.24560000  0.49680000  1.0
  C  C201  1  0.14530000  0.22690000  0.51740000  1.0
  C  C202  1  0.14450000  0.19770000  0.55030000  1.0
  C  C203  1  0.02230000  0.18890000  0.56520000  1.0
  C  C204  1  0.77530000  0.19740000  0.56060000  1.0
  C  C205  1  0.03120000  0.27350000  0.45960000  1.0
  C  C206  1  0.27140000  0.17430000  0.57090000  1.0
  C  C207  1  0.93320000  0.62900000  0.38840000  1.0
  C  C208  1  0.95770000  0.55720000  0.39320000  1.0
  C  C209  1  0.85230000  0.52420000  0.39730000  1.0
  C  C210  1  0.72050000  0.56640000  0.39730000  1.0
  C  C211  1  0.69500000  0.63690000  0.39220000  1.0
  C  C212  1  0.80080000  0.66930000  0.38710000  1.0
  C  C213  1  0.04840000  0.66180000  0.38380000  1.0
  C  C214  1  0.87860000  0.44560000  0.40000000  1.0
  C  C215  1  0.55300000  0.67900000  0.39030000  1.0
  O  O216  1  0.86090000  0.66870000  0.66730000  1.0
  O  O217  1  0.07740000  0.67060000  0.66150000  1.0
  O  O218  1  0.37490000  0.63470000  0.76640000  1.0
  O  O219  1  0.27820000  0.66060000  0.81880000  1.0
  O  O220  1  0.81020000  0.62050000  0.83280000  1.0
  O  O221  1  0.68250000  0.63680000  0.78510000  1.0
  O  O222  1  0.88050000  0.79750000  0.61950000  1.0
  O  O223  1  0.09290000  0.80870000  0.62030000  1.0
  O  O224  1  0.19330000  0.03140000  0.64820000  1.0
  O  O225  1  0.03240000  0.12190000  0.66440000  1.0
  O  O226  1  0.55160000  0.10500000  0.64270000  1.0
  O  O227  1  0.51530000  0.99960000  0.64990000  1.0
  O  O228  1  0.43070000  0.17920000  0.83980000  1.0
  O  O229  1  0.65280000  0.17930000  0.83620000  1.0
  O  O230  1  0.85050000  0.22390000  0.72400000  1.0
  O  O231  1  0.74140000  0.22080000  0.67320000  1.0
  O  O232  1  0.25290000  0.20660000  0.68050000  1.0
  O  O233  1  0.15420000  0.22600000  0.73300000  1.0
  O  O234  1  0.43440000  0.05590000  0.89010000  1.0
  O  O235  1  0.64460000  0.06690000  0.89330000  1.0
  O  O236  1  0.01880000  0.87250000  0.85290000  1.0
  O  O237  1  0.98350000  0.76520000  0.85640000  1.0
  O  O238  1  0.51010000  0.74480000  0.83490000  1.0
  O  O239  1  0.34380000  0.83700000  0.84790000  1.0
  O  O240  1  0.76940000  0.70190000  0.90580000  1.0
  O  O241  1  0.82060000  0.77380000  0.94430000  1.0
  O  O242  1  0.53650000  0.83060000  0.04980000  1.0
  O  O243  1  0.31800000  0.82290000  0.04900000  1.0
  O  O244  1  0.12990000  0.77260000  0.93740000  1.0
  O  O245  1  0.26360000  0.71870000  0.89510000  1.0
  O  O246  1  0.98440000  0.51710000  0.89430000  1.0
  O  O247  1  0.05880000  0.61270000  0.88250000  1.0
  O  O248  1  0.55420000  0.59320000  0.87560000  1.0
  O  O249  1  0.68650000  0.49090000  0.89250000  1.0
  O  O250  1  0.51860000  0.27780000  0.89500000  1.0
  O  O251  1  0.29600000  0.28490000  0.89730000  1.0
  O  O252  1  0.23430000  0.80850000  0.40620000  1.0
  O  O253  1  0.31770000  0.80660000  0.45980000  1.0
  O  O254  1  0.07470000  0.71430000  0.55720000  1.0
  O  O255  1  0.85540000  0.71800000  0.55200000  1.0
  O  O256  1  0.62470000  0.81320000  0.44360000  1.0
  O  O257  1  0.73110000  0.85350000  0.39930000  1.0
  O  O258  1  0.96470000  0.27720000  0.63070000  1.0
  O  O259  1  0.83730000  0.37130000  0.60640000  1.0
  O  O260  1  0.00200000  0.58590000  0.59910000  1.0
  O  O261  1  0.22170000  0.58040000  0.60080000  1.0
  O  O262  1  0.53970000  0.34930000  0.59950000  1.0
  O  O263  1  0.46820000  0.26060000  0.62180000  1.0
  O  O264  1  0.13910000  0.33130000  0.33270000  1.0
  O  O265  1  0.92260000  0.32940000  0.33850000  1.0
  O  O266  1  0.62510000  0.36530000  0.23360000  1.0
  O  O267  1  0.72180000  0.33940000  0.18120000  1.0
  O  O268  1  0.18980000  0.37950000  0.16720000  1.0
  O  O269  1  0.31750000  0.36320000  0.21490000  1.0
  O  O270  1  0.11950000  0.20250000  0.38050000  1.0
  O  O271  1  0.90710000  0.19130000  0.37970000  1.0
  O  O272  1  0.80670000  0.96860000  0.35180000  1.0
  O  O273  1  0.96760000  0.87810000  0.33560000  1.0
  O  O274  1  0.44840000  0.89500000  0.35730000  1.0
  O  O275  1  0.48470000  0.00040000  0.35010000  1.0
  O  O276  1  0.56930000  0.82080000  0.16020000  1.0
  O  O277  1  0.34720000  0.82070000  0.16380000  1.0
  O  O278  1  0.14950000  0.77610000  0.27600000  1.0
  O  O279  1  0.25860000  0.77920000  0.32680000  1.0
  O  O280  1  0.74710000  0.79340000  0.31950000  1.0
  O  O281  1  0.84580000  0.77400000  0.26700000  1.0
  O  O282  1  0.56560000  0.94410000  0.10990000  1.0
  O  O283  1  0.35540000  0.93310000  0.10670000  1.0
  O  O284  1  0.98120000  0.12750000  0.14710000  1.0
  O  O285  1  0.01650000  0.23480000  0.14360000  1.0
  O  O286  1  0.48990000  0.25520000  0.16510000  1.0
  O  O287  1  0.65620000  0.16300000  0.15210000  1.0
  O  O288  1  0.23060000  0.29810000  0.09420000  1.0
  O  O289  1  0.17940000  0.22620000  0.05570000  1.0
  O  O290  1  0.46350000  0.16940000  0.95020000  1.0
  O  O291  1  0.68200000  0.17710000  0.95100000  1.0
  O  O292  1  0.87010000  0.22740000  0.06260000  1.0
  O  O293  1  0.73640000  0.28130000  0.10490000  1.0
  O  O294  1  0.01560000  0.48290000  0.10570000  1.0
  O  O295  1  0.94120000  0.38730000  0.11750000  1.0
  O  O296  1  0.44580000  0.40680000  0.12440000  1.0
  O  O297  1  0.31350000  0.50910000  0.10750000  1.0
  O  O298  1  0.48140000  0.72220000  0.10500000  1.0
  O  O299  1  0.70400000  0.71510000  0.10270000  1.0
  O  O300  1  0.76570000  0.19150000  0.59380000  1.0
  O  O301  1  0.68230000  0.19340000  0.54020000  1.0
  O  O302  1  0.92530000  0.28570000  0.44280000  1.0
  O  O303  1  0.14460000  0.28200000  0.44800000  1.0
  O  O304  1  0.37530000  0.18680000  0.55640000  1.0
  O  O305  1  0.26890000  0.14650000  0.60070000  1.0
  O  O306  1  0.03530000  0.72280000  0.36930000  1.0
  O  O307  1  0.16270000  0.62870000  0.39360000  1.0
  O  O308  1  0.99800000  0.41410000  0.40090000  1.0
  O  O309  1  0.77830000  0.41960000  0.39920000  1.0
  O  O310  1  0.46030000  0.65070000  0.40050000  1.0
  O  O311  1  0.53180000  0.73940000  0.37820000  1.0
