# generated using pymatgen
data_Eu4H22C12N3O16
_symmetry_space_group_name_H-M   'P 1'
_cell_length_a   11.56100000
_cell_length_b   20.81600000
_cell_length_c   23.67600000
_cell_angle_alpha   90.00000000
_cell_angle_beta   90.00000000
_cell_angle_gamma   90.00000000
_symmetry_Int_Tables_number   1
_chemical_formula_structural   Eu4H22C12N3O16
_chemical_formula_sum   'Eu16 H88 C48 N12 O64'
_cell_volume   5697.71880058
_cell_formula_units_Z   4
loop_
 _symmetry_equiv_pos_site_id
 _symmetry_equiv_pos_as_xyz
  1  'x, y, z'
loop_
 _atom_site_type_symbol
 _atom_site_label
 _atom_site_symmetry_multiplicity
 _atom_site_fract_x
 _atom_site_fract_y
 _atom_site_fract_z
 _atom_site_occupancy
  Eu  Eu0  1  0.58077000  0.96420000  0.26840000  1.0
  Eu  Eu1  1  0.91725000  0.97328000  0.26576000  1.0
  Eu  Eu2  1  0.75634000  0.87699000  0.15193000  1.0
  Eu  Eu3  1  0.73532000  0.06703000  0.15705000  1.0
  Eu  Eu4  1  0.91923000  0.03580000  0.76840000  1.0
  Eu  Eu5  1  0.58275000  0.02672000  0.76576000  1.0
  Eu  Eu6  1  0.74366000  0.12301000  0.65193000  1.0
  Eu  Eu7  1  0.76468000  0.93297000  0.65705000  1.0
  Eu  Eu8  1  0.41923000  0.46420000  0.23160000  1.0
  Eu  Eu9  1  0.08275000  0.47328000  0.23424000  1.0
  Eu  Eu10  1  0.24366000  0.37699000  0.34807000  1.0
  Eu  Eu11  1  0.26468000  0.56703000  0.34295000  1.0
  Eu  Eu12  1  0.08077000  0.53580000  0.73160000  1.0
  Eu  Eu13  1  0.41725000  0.52672000  0.73424000  1.0
  Eu  Eu14  1  0.25634000  0.62301000  0.84807000  1.0
  Eu  Eu15  1  0.23532000  0.43297000  0.84295000  1.0
  H  H16  1  0.73820000  0.06970000  0.28210000  1.0
  H  H17  1  0.13080000  0.21630000  0.30980000  1.0
  H  H18  1  0.14700000  0.16790000  0.26620000  1.0
  H  H19  1  0.09470000  0.15040000  0.31990000  1.0
  H  H20  1  0.93010000  0.97930000  0.14470000  1.0
  H  H21  1  0.93470000  0.20900000  0.30230000  1.0
  H  H22  1  0.85980000  0.91540000  0.50620000  1.0
  H  H23  1  0.92310000  0.93940000  0.45760000  1.0
  H  H24  1  0.86320000  0.87810000  0.45440000  1.0
  H  H25  1  0.75630000  0.86670000  0.27520000  1.0
  H  H26  1  0.91600000  0.26050000  0.21490000  1.0
  H  H27  1  0.04300000  0.24140000  0.19990000  1.0
  H  H28  1  0.35060000  0.71940000  0.29280000  1.0
  H  H29  1  0.33990000  0.76810000  0.24910000  1.0
  H  H30  1  0.38100000  0.78580000  0.30490000  1.0
  H  H31  1  0.55440000  0.96650000  0.14700000  1.0
  H  H32  1  0.68890000  0.92620000  0.46170000  1.0
  H  H33  1  0.81340000  0.04300000  0.45620000  1.0
  H  H34  1  0.67840000  0.03790000  0.45730000  1.0
  H  H35  1  0.54620000  0.73110000  0.29450000  1.0
  H  H36  1  0.58580000  0.68100000  0.20730000  1.0
  H  H37  1  0.45810000  0.69420000  0.18860000  1.0
  H  H38  1  0.76180000  0.93030000  0.78210000  1.0
  H  H39  1  0.36920000  0.78370000  0.80980000  1.0
  H  H40  1  0.35300000  0.83210000  0.76620000  1.0
  H  H41  1  0.40530000  0.84960000  0.81990000  1.0
  H  H42  1  0.56990000  0.02070000  0.64470000  1.0
  H  H43  1  0.56530000  0.79100000  0.80230000  1.0
  H  H44  1  0.64020000  0.08460000  0.00620000  1.0
  H  H45  1  0.57690000  0.06060000  0.95760000  1.0
  H  H46  1  0.63680000  0.12190000  0.95440000  1.0
  H  H47  1  0.74370000  0.13330000  0.77520000  1.0
  H  H48  1  0.58400000  0.73950000  0.71490000  1.0
  H  H49  1  0.45700000  0.75860000  0.69990000  1.0
  H  H50  1  0.14940000  0.28060000  0.79280000  1.0
  H  H51  1  0.16010000  0.23190000  0.74910000  1.0
  H  H52  1  0.11900000  0.21420000  0.80490000  1.0
  H  H53  1  0.94560000  0.03350000  0.64700000  1.0
  H  H54  1  0.81110000  0.07380000  0.96170000  1.0
  H  H55  1  0.68660000  0.95700000  0.95620000  1.0
  H  H56  1  0.82160000  0.96210000  0.95730000  1.0
  H  H57  1  0.95380000  0.26890000  0.79450000  1.0
  H  H58  1  0.91420000  0.31900000  0.70730000  1.0
  H  H59  1  0.04190000  0.30580000  0.68860000  1.0
  H  H60  1  0.26180000  0.56970000  0.21790000  1.0
  H  H61  1  0.86920000  0.71630000  0.19020000  1.0
  H  H62  1  0.85300000  0.66790000  0.23380000  1.0
  H  H63  1  0.90530000  0.65040000  0.18010000  1.0
  H  H64  1  0.06990000  0.47930000  0.35530000  1.0
  H  H65  1  0.06530000  0.70900000  0.19770000  1.0
  H  H66  1  0.14020000  0.41540000  0.99380000  1.0
  H  H67  1  0.07690000  0.43940000  0.04240000  1.0
  H  H68  1  0.13680000  0.37810000  0.04560000  1.0
  H  H69  1  0.24370000  0.36670000  0.22480000  1.0
  H  H70  1  0.08400000  0.76050000  0.28510000  1.0
  H  H71  1  0.95700000  0.74140000  0.30010000  1.0
  H  H72  1  0.64940000  0.21940000  0.20720000  1.0
  H  H73  1  0.66010000  0.26810000  0.25090000  1.0
  H  H74  1  0.61900000  0.28580000  0.19510000  1.0
  H  H75  1  0.44560000  0.46650000  0.35300000  1.0
  H  H76  1  0.31110000  0.42620000  0.03830000  1.0
  H  H77  1  0.18660000  0.54300000  0.04380000  1.0
  H  H78  1  0.32160000  0.53790000  0.04270000  1.0
  H  H79  1  0.45380000  0.23110000  0.20550000  1.0
  H  H80  1  0.41420000  0.18100000  0.29270000  1.0
  H  H81  1  0.54190000  0.19420000  0.31140000  1.0
  H  H82  1  0.23820000  0.43030000  0.71790000  1.0
  H  H83  1  0.63080000  0.28370000  0.69020000  1.0
  H  H84  1  0.64700000  0.33210000  0.73380000  1.0
  H  H85  1  0.59470000  0.34960000  0.68010000  1.0
  H  H86  1  0.43010000  0.52070000  0.85530000  1.0
  H  H87  1  0.43470000  0.29100000  0.69770000  1.0
  H  H88  1  0.35980000  0.58460000  0.49380000  1.0
  H  H89  1  0.42310000  0.56060000  0.54240000  1.0
  H  H90  1  0.36320000  0.62190000  0.54560000  1.0
  H  H91  1  0.25630000  0.63330000  0.72480000  1.0
  H  H92  1  0.41600000  0.23950000  0.78510000  1.0
  H  H93  1  0.54300000  0.25860000  0.80010000  1.0
  H  H94  1  0.85060000  0.78060000  0.70720000  1.0
  H  H95  1  0.83990000  0.73190000  0.75090000  1.0
  H  H96  1  0.88100000  0.71420000  0.69510000  1.0
  H  H97  1  0.05440000  0.53350000  0.85300000  1.0
  H  H98  1  0.18890000  0.57380000  0.53830000  1.0
  H  H99  1  0.31340000  0.45700000  0.54380000  1.0
  H  H100  1  0.17840000  0.46210000  0.54270000  1.0
  H  H101  1  0.04620000  0.76890000  0.70550000  1.0
  H  H102  1  0.08580000  0.81900000  0.79270000  1.0
  H  H103  1  0.95810000  0.80580000  0.81140000  1.0
  C  C104  1  0.93130000  0.13620000  0.24450000  1.0
  C  C105  1  0.98410000  0.19630000  0.27060000  1.0
  C  C106  1  0.99210000  0.25310000  0.23080000  1.0
  C  C107  1  0.03520000  0.31600000  0.25580000  1.0
  C  C108  1  0.75400000  0.95520000  0.38390000  1.0
  C  C109  1  0.75690000  0.95030000  0.44890000  1.0
  C  C110  1  0.74920000  0.01850000  0.47130000  1.0
  C  C111  1  0.75080000  0.02410000  0.53500000  1.0
  C  C112  1  0.55320000  0.80470000  0.23720000  1.0
  C  C113  1  0.50200000  0.74240000  0.26060000  1.0
  C  C114  1  0.50720000  0.68540000  0.22100000  1.0
  C  C115  1  0.47000000  0.62200000  0.24700000  1.0
  C  C116  1  0.56870000  0.86380000  0.74450000  1.0
  C  C117  1  0.51590000  0.80370000  0.77060000  1.0
  C  C118  1  0.50790000  0.74690000  0.73080000  1.0
  C  C119  1  0.46480000  0.68400000  0.75580000  1.0
  C  C120  1  0.74600000  0.04480000  0.88390000  1.0
  C  C121  1  0.74310000  0.04970000  0.94890000  1.0
  C  C122  1  0.75080000  0.98150000  0.97130000  1.0
  C  C123  1  0.74920000  0.97590000  0.03500000  1.0
  C  C124  1  0.94680000  0.19530000  0.73720000  1.0
  C  C125  1  0.99800000  0.25760000  0.76060000  1.0
  C  C126  1  0.99280000  0.31460000  0.72100000  1.0
  C  C127  1  0.03000000  0.37800000  0.74700000  1.0
  C  C128  1  0.06870000  0.63620000  0.25550000  1.0
  C  C129  1  0.01590000  0.69630000  0.22940000  1.0
  C  C130  1  0.00790000  0.75310000  0.26920000  1.0
  C  C131  1  0.96480000  0.81600000  0.24420000  1.0
  C  C132  1  0.24600000  0.45520000  0.11610000  1.0
  C  C133  1  0.24310000  0.45030000  0.05110000  1.0
  C  C134  1  0.25080000  0.51850000  0.02870000  1.0
  C  C135  1  0.24920000  0.52410000  0.96500000  1.0
  C  C136  1  0.44680000  0.30470000  0.26280000  1.0
  C  C137  1  0.49800000  0.24240000  0.23940000  1.0
  C  C138  1  0.49280000  0.18540000  0.27900000  1.0
  C  C139  1  0.53000000  0.12200000  0.25300000  1.0
  C  C140  1  0.43130000  0.36380000  0.75550000  1.0
  C  C141  1  0.48410000  0.30370000  0.72940000  1.0
  C  C142  1  0.49210000  0.24690000  0.76920000  1.0
  C  C143  1  0.53520000  0.18400000  0.74420000  1.0
  C  C144  1  0.25400000  0.54480000  0.61610000  1.0
  C  C145  1  0.25690000  0.54970000  0.55110000  1.0
  C  C146  1  0.24920000  0.48150000  0.52870000  1.0
  C  C147  1  0.25080000  0.47590000  0.46500000  1.0
  C  C148  1  0.05320000  0.69530000  0.76280000  1.0
  C  C149  1  0.00200000  0.75760000  0.73940000  1.0
  C  C150  1  0.00720000  0.81460000  0.77900000  1.0
  C  C151  1  0.97000000  0.87800000  0.75300000  1.0
  N  N152  1  0.10090000  0.18120000  0.29400000  1.0
  N  N153  1  0.86090000  0.91760000  0.46870000  1.0
  N  N154  1  0.38130000  0.75520000  0.27870000  1.0
  N  N155  1  0.39910000  0.81880000  0.79400000  1.0
  N  N156  1  0.63910000  0.08240000  0.96870000  1.0
  N  N157  1  0.11870000  0.24480000  0.77870000  1.0
  N  N158  1  0.89910000  0.68120000  0.20600000  1.0
  N  N159  1  0.13910000  0.41760000  0.03130000  1.0
  N  N160  1  0.61870000  0.25520000  0.22130000  1.0
  N  N161  1  0.60090000  0.31880000  0.70600000  1.0
  N  N162  1  0.36090000  0.58240000  0.53130000  1.0
  N  N163  1  0.88130000  0.74480000  0.72130000  1.0
  O  O164  1  0.74090000  0.03300000  0.25630000  1.0
  O  O165  1  0.86220000  0.97600000  0.16930000  1.0
  O  O166  1  0.75240000  0.90510000  0.25130000  1.0
  O  O167  1  0.62400000  0.96790000  0.17060000  1.0
  O  O168  1  0.97760000  0.08410000  0.25750000  1.0
  O  O169  1  0.84860000  0.14600000  0.21200000  1.0
  O  O170  1  0.10040000  0.31320000  0.29730000  1.0
  O  O171  1  0.00720000  0.36710000  0.23240000  1.0
  O  O172  1  0.65730000  0.95960000  0.36200000  1.0
  O  O173  1  0.85090000  0.95640000  0.36020000  1.0
  O  O174  1  0.74380000  0.07950000  0.55560000  1.0
  O  O175  1  0.75480000  0.97370000  0.56290000  1.0
  O  O176  1  0.51240000  0.85640000  0.25560000  1.0
  O  O177  1  0.63250000  0.79830000  0.20140000  1.0
  O  O178  1  0.41400000  0.62460000  0.29150000  1.0
  O  O179  1  0.49620000  0.57120000  0.22100000  1.0
  O  O180  1  0.75910000  0.96700000  0.75630000  1.0
  O  O181  1  0.63780000  0.02400000  0.66930000  1.0
  O  O182  1  0.74760000  0.09490000  0.75130000  1.0
  O  O183  1  0.87600000  0.03210000  0.67060000  1.0
  O  O184  1  0.52240000  0.91590000  0.75750000  1.0
  O  O185  1  0.65140000  0.85400000  0.71200000  1.0
  O  O186  1  0.39960000  0.68680000  0.79730000  1.0
  O  O187  1  0.49280000  0.63290000  0.73240000  1.0
  O  O188  1  0.84270000  0.04040000  0.86200000  1.0
  O  O189  1  0.64910000  0.04360000  0.86020000  1.0
  O  O190  1  0.75620000  0.92050000  0.05560000  1.0
  O  O191  1  0.74520000  0.02630000  0.06290000  1.0
  O  O192  1  0.98760000  0.14360000  0.75560000  1.0
  O  O193  1  0.86750000  0.20170000  0.70140000  1.0
  O  O194  1  0.08600000  0.37540000  0.79150000  1.0
  O  O195  1  0.00380000  0.42880000  0.72100000  1.0
  O  O196  1  0.25910000  0.53300000  0.24370000  1.0
  O  O197  1  0.13780000  0.47600000  0.33070000  1.0
  O  O198  1  0.24760000  0.40510000  0.24870000  1.0
  O  O199  1  0.37600000  0.46790000  0.32940000  1.0
  O  O200  1  0.02240000  0.58410000  0.24250000  1.0
  O  O201  1  0.15140000  0.64600000  0.28800000  1.0
  O  O202  1  0.89960000  0.81320000  0.20270000  1.0
  O  O203  1  0.99280000  0.86710000  0.26760000  1.0
  O  O204  1  0.34270000  0.45960000  0.13800000  1.0
  O  O205  1  0.14910000  0.45640000  0.13980000  1.0
  O  O206  1  0.25620000  0.57950000  0.94440000  1.0
  O  O207  1  0.24520000  0.47370000  0.93710000  1.0
  O  O208  1  0.48760000  0.35640000  0.24440000  1.0
  O  O209  1  0.36750000  0.29830000  0.29860000  1.0
  O  O210  1  0.58600000  0.12460000  0.20850000  1.0
  O  O211  1  0.50380000  0.07120000  0.27900000  1.0
  O  O212  1  0.24090000  0.46700000  0.74370000  1.0
  O  O213  1  0.36220000  0.52400000  0.83070000  1.0
  O  O214  1  0.25240000  0.59490000  0.74870000  1.0
  O  O215  1  0.12400000  0.53210000  0.82940000  1.0
  O  O216  1  0.47760000  0.41590000  0.74250000  1.0
  O  O217  1  0.34860000  0.35400000  0.78800000  1.0
  O  O218  1  0.60040000  0.18680000  0.70270000  1.0
  O  O219  1  0.50720000  0.13290000  0.76760000  1.0
  O  O220  1  0.15730000  0.54040000  0.63800000  1.0
  O  O221  1  0.35090000  0.54360000  0.63980000  1.0
  O  O222  1  0.24380000  0.42050000  0.44440000  1.0
  O  O223  1  0.25480000  0.52630000  0.43710000  1.0
  O  O224  1  0.01240000  0.64360000  0.74440000  1.0
  O  O225  1  0.13250000  0.70170000  0.79860000  1.0
  O  O226  1  0.91400000  0.87540000  0.70850000  1.0
  O  O227  1  0.99620000  0.92880000  0.77900000  1.0
