# generated using pymatgen
data_Tb4H50C84O31
_symmetry_space_group_name_H-M   'P 1'
_cell_length_a   15.94510000
_cell_length_b   28.14800000
_cell_length_c   23.41600000
_cell_angle_alpha   90.00000000
_cell_angle_beta   107.83700000
_cell_angle_gamma   90.00000000
_symmetry_Int_Tables_number   1
_chemical_formula_structural   Tb4H50C84O31
_chemical_formula_sum   'Tb16 H200 C336 O124'
_cell_volume   10004.45251246
_cell_formula_units_Z   4
loop_
 _symmetry_equiv_pos_site_id
 _symmetry_equiv_pos_as_xyz
  1  'x, y, z'
loop_
 _atom_site_type_symbol
 _atom_site_label
 _atom_site_symmetry_multiplicity
 _atom_site_fract_x
 _atom_site_fract_y
 _atom_site_fract_z
 _atom_site_occupancy
  Tb  Tb0  1  0.60682000  0.14252000  0.69479000  1.0
  Tb  Tb1  1  0.43987000  0.14079000  0.78122000  1.0
  Tb  Tb2  1  0.22024000  0.10566000  0.78991000  1.0
  Tb  Tb3  1  0.91484000  0.13078000  0.70701000  1.0
  Tb  Tb4  1  0.89318000  0.64252000  0.80521000  1.0
  Tb  Tb5  1  0.06013000  0.64079000  0.71878000  1.0
  Tb  Tb6  1  0.27976000  0.60566000  0.71009000  1.0
  Tb  Tb7  1  0.58516000  0.63078000  0.79299000  1.0
  Tb  Tb8  1  0.39318000  0.85748000  0.30521000  1.0
  Tb  Tb9  1  0.56013000  0.85921000  0.21878000  1.0
  Tb  Tb10  1  0.77976000  0.89434000  0.21009000  1.0
  Tb  Tb11  1  0.08516000  0.86922000  0.29299000  1.0
  Tb  Tb12  1  0.10682000  0.35748000  0.19479000  1.0
  Tb  Tb13  1  0.93987000  0.35921000  0.28122000  1.0
  Tb  Tb14  1  0.72024000  0.39434000  0.28991000  1.0
  Tb  Tb15  1  0.41484000  0.36922000  0.20701000  1.0
  H  H16  1  0.85910000  0.98910000  0.67460000  1.0
  H  H17  1  0.59690000  0.00630000  0.62750000  1.0
  H  H18  1  0.83980000  0.90790000  0.66420000  1.0
  H  H19  1  0.57900000  0.92530000  0.61300000  1.0
  H  H20  1  0.76610000  0.82040000  0.55980000  1.0
  H  H21  1  0.76150000  0.82690000  0.72640000  1.0
  H  H22  1  0.86010000  0.75570000  0.58330000  1.0
  H  H23  1  0.85240000  0.76110000  0.75030000  1.0
  H  H24  1  0.36940000  0.06730000  0.53240000  1.0
  H  H25  1  0.25780000  0.14090000  0.63410000  1.0
  H  H26  1  0.23130000  0.05280000  0.46430000  1.0
  H  H27  1  0.11920000  0.12760000  0.56620000  1.0
  H  H28  1  0.12460000  0.99660000  0.49110000  1.0
  H  H29  1  0.96060000  0.08190000  0.37190000  1.0
  H  H30  1  0.06200000  0.93170000  0.43300000  1.0
  H  H31  1  0.88970000  0.01630000  0.32070000  1.0
  H  H32  1  0.62640000  0.00880000  0.74480000  1.0
  H  H33  1  0.65970000  0.03710000  0.91660000  1.0
  H  H34  1  0.71230000  0.94070000  0.77280000  1.0
  H  H35  1  0.74820000  0.97140000  0.94390000  1.0
  H  H36  1  0.89970000  0.84560000  0.89540000  1.0
  H  H37  1  0.64190000  0.87270000  0.82490000  1.0
  H  H38  1  0.87500000  0.76690000  0.86960000  1.0
  H  H39  1  0.61570000  0.79290000  0.80420000  1.0
  H  H40  1  0.49960000  0.17110000  0.94470000  1.0
  H  H41  1  0.34510000  0.08350000  0.00190000  1.0
  H  H42  1  0.58090000  0.18600000  0.04410000  1.0
  H  H43  1  0.42940000  0.09540000  0.09940000  1.0
  H  H44  1  0.52670000  0.23890000  0.13370000  1.0
  H  H45  1  0.71680000  0.14150000  0.19180000  1.0
  H  H46  1  0.62550000  0.29880000  0.17720000  1.0
  H  H47  1  0.81610000  0.20100000  0.23550000  1.0
  H  H48  1  0.20930000  0.26110000  0.84290000  1.0
  H  H49  1  0.95170000  0.24380000  0.80280000  1.0
  H  H50  1  0.19320000  0.34090000  0.86120000  1.0
  H  H51  1  0.93550000  0.32240000  0.82300000  1.0
  H  H52  1  0.08130000  0.38230000  0.74960000  1.0
  H  H53  1  0.07120000  0.47290000  0.87740000  1.0
  H  H54  1  0.13160000  0.44220000  0.70140000  1.0
  H  H55  1  0.11480000  0.53270000  0.82650000  1.0
  H  H56  1  0.14790000  0.02880000  0.90590000  1.0
  H  H57  1  0.93960000  0.97460000  0.78510000  1.0
  H  H58  1  0.15430000  0.96290000  0.96560000  1.0
  H  H59  1  0.95330000  0.90580000  0.84040000  1.0
  H  H60  1  0.21990000  0.86800000  0.00090000  1.0
  H  H61  1  0.98890000  0.90340000  0.01870000  1.0
  H  H62  1  0.27880000  0.86000000  0.10480000  1.0
  H  H63  1  0.04440000  0.89330000  0.12220000  1.0
  H  H64  1  0.88450000  0.17210000  0.57140000  1.0
  H  H65  1  0.83510000  0.14570000  0.59850000  1.0
  H  H66  1  0.64090000  0.48910000  0.82540000  1.0
  H  H67  1  0.90310000  0.50630000  0.87250000  1.0
  H  H68  1  0.66020000  0.40790000  0.83580000  1.0
  H  H69  1  0.92100000  0.42530000  0.88700000  1.0
  H  H70  1  0.73390000  0.32040000  0.94020000  1.0
  H  H71  1  0.73850000  0.32690000  0.77360000  1.0
  H  H72  1  0.63990000  0.25570000  0.91670000  1.0
  H  H73  1  0.64760000  0.26110000  0.74970000  1.0
  H  H74  1  0.13060000  0.56730000  0.96760000  1.0
  H  H75  1  0.24220000  0.64090000  0.86590000  1.0
  H  H76  1  0.26870000  0.55280000  0.03570000  1.0
  H  H77  1  0.38080000  0.62760000  0.93380000  1.0
  H  H78  1  0.37540000  0.49660000  0.00890000  1.0
  H  H79  1  0.53940000  0.58190000  0.12810000  1.0
  H  H80  1  0.43800000  0.43170000  0.06700000  1.0
  H  H81  1  0.61030000  0.51630000  0.17930000  1.0
  H  H82  1  0.87360000  0.50880000  0.75520000  1.0
  H  H83  1  0.84030000  0.53710000  0.58340000  1.0
  H  H84  1  0.78770000  0.44070000  0.72720000  1.0
  H  H85  1  0.75180000  0.47140000  0.55610000  1.0
  H  H86  1  0.60030000  0.34560000  0.60460000  1.0
  H  H87  1  0.85810000  0.37270000  0.67510000  1.0
  H  H88  1  0.62500000  0.26690000  0.63040000  1.0
  H  H89  1  0.88430000  0.29290000  0.69580000  1.0
  H  H90  1  0.00040000  0.67110000  0.55530000  1.0
  H  H91  1  0.15490000  0.58350000  0.49810000  1.0
  H  H92  1  0.91910000  0.68600000  0.45590000  1.0
  H  H93  1  0.07060000  0.59540000  0.40060000  1.0
  H  H94  1  0.97330000  0.73890000  0.36630000  1.0
  H  H95  1  0.78320000  0.64150000  0.30820000  1.0
  H  H96  1  0.87450000  0.79880000  0.32280000  1.0
  H  H97  1  0.68390000  0.70100000  0.26450000  1.0
  H  H98  1  0.29070000  0.76110000  0.65710000  1.0
  H  H99  1  0.54830000  0.74380000  0.69720000  1.0
  H  H100  1  0.30680000  0.84090000  0.63880000  1.0
  H  H101  1  0.56450000  0.82240000  0.67700000  1.0
  H  H102  1  0.41870000  0.88230000  0.75040000  1.0
  H  H103  1  0.42880000  0.97290000  0.62260000  1.0
  H  H104  1  0.36840000  0.94220000  0.79860000  1.0
  H  H105  1  0.38520000  0.03270000  0.67350000  1.0
  H  H106  1  0.35210000  0.52880000  0.59410000  1.0
  H  H107  1  0.56040000  0.47460000  0.71490000  1.0
  H  H108  1  0.34570000  0.46290000  0.53440000  1.0
  H  H109  1  0.54670000  0.40580000  0.65960000  1.0
  H  H110  1  0.28010000  0.36800000  0.49910000  1.0
  H  H111  1  0.51110000  0.40340000  0.48130000  1.0
  H  H112  1  0.22120000  0.36000000  0.39520000  1.0
  H  H113  1  0.45560000  0.39330000  0.37780000  1.0
  H  H114  1  0.61550000  0.67210000  0.92860000  1.0
  H  H115  1  0.66490000  0.64570000  0.90150000  1.0
  H  H116  1  0.14090000  0.01090000  0.32540000  1.0
  H  H117  1  0.40310000  0.99370000  0.37250000  1.0
  H  H118  1  0.16020000  0.09210000  0.33580000  1.0
  H  H119  1  0.42100000  0.07470000  0.38700000  1.0
  H  H120  1  0.23390000  0.17960000  0.44020000  1.0
  H  H121  1  0.23850000  0.17310000  0.27360000  1.0
  H  H122  1  0.13990000  0.24430000  0.41670000  1.0
  H  H123  1  0.14760000  0.23890000  0.24970000  1.0
  H  H124  1  0.63060000  0.93270000  0.46760000  1.0
  H  H125  1  0.74220000  0.85910000  0.36590000  1.0
  H  H126  1  0.76870000  0.94720000  0.53570000  1.0
  H  H127  1  0.88080000  0.87240000  0.43380000  1.0
  H  H128  1  0.87540000  0.00340000  0.50890000  1.0
  H  H129  1  0.03940000  0.91810000  0.62810000  1.0
  H  H130  1  0.93800000  0.06830000  0.56700000  1.0
  H  H131  1  0.11030000  0.98370000  0.67930000  1.0
  H  H132  1  0.37360000  0.99120000  0.25520000  1.0
  H  H133  1  0.34030000  0.96290000  0.08340000  1.0
  H  H134  1  0.28770000  0.05930000  0.22720000  1.0
  H  H135  1  0.25180000  0.02860000  0.05610000  1.0
  H  H136  1  0.10030000  0.15440000  0.10460000  1.0
  H  H137  1  0.35810000  0.12730000  0.17510000  1.0
  H  H138  1  0.12500000  0.23310000  0.13040000  1.0
  H  H139  1  0.38430000  0.20710000  0.19580000  1.0
  H  H140  1  0.50040000  0.82890000  0.05530000  1.0
  H  H141  1  0.65490000  0.91650000  0.99810000  1.0
  H  H142  1  0.41910000  0.81400000  0.95590000  1.0
  H  H143  1  0.57060000  0.90460000  0.90060000  1.0
  H  H144  1  0.47330000  0.76110000  0.86630000  1.0
  H  H145  1  0.28320000  0.85850000  0.80820000  1.0
  H  H146  1  0.37450000  0.70120000  0.82280000  1.0
  H  H147  1  0.18390000  0.79900000  0.76450000  1.0
  H  H148  1  0.79070000  0.73890000  0.15710000  1.0
  H  H149  1  0.04830000  0.75620000  0.19720000  1.0
  H  H150  1  0.80680000  0.65910000  0.13880000  1.0
  H  H151  1  0.06450000  0.67760000  0.17700000  1.0
  H  H152  1  0.91870000  0.61770000  0.25040000  1.0
  H  H153  1  0.92880000  0.52710000  0.12260000  1.0
  H  H154  1  0.86840000  0.55780000  0.29860000  1.0
  H  H155  1  0.88520000  0.46730000  0.17350000  1.0
  H  H156  1  0.85210000  0.97120000  0.09410000  1.0
  H  H157  1  0.06040000  0.02540000  0.21490000  1.0
  H  H158  1  0.84570000  0.03710000  0.03440000  1.0
  H  H159  1  0.04670000  0.09420000  0.15960000  1.0
  H  H160  1  0.78010000  0.13200000  0.99910000  1.0
  H  H161  1  0.01110000  0.09660000  0.98130000  1.0
  H  H162  1  0.72120000  0.14000000  0.89520000  1.0
  H  H163  1  0.95560000  0.10670000  0.87780000  1.0
  H  H164  1  0.11550000  0.82790000  0.42860000  1.0
  H  H165  1  0.16490000  0.85430000  0.40150000  1.0
  H  H166  1  0.35910000  0.51090000  0.17460000  1.0
  H  H167  1  0.09690000  0.49370000  0.12750000  1.0
  H  H168  1  0.33980000  0.59210000  0.16420000  1.0
  H  H169  1  0.07900000  0.57470000  0.11300000  1.0
  H  H170  1  0.26610000  0.67960000  0.05980000  1.0
  H  H171  1  0.26150000  0.67310000  0.22640000  1.0
  H  H172  1  0.36010000  0.74430000  0.08330000  1.0
  H  H173  1  0.35240000  0.73890000  0.25030000  1.0
  H  H174  1  0.86940000  0.43270000  0.03240000  1.0
  H  H175  1  0.75780000  0.35910000  0.13410000  1.0
  H  H176  1  0.73130000  0.44720000  0.96430000  1.0
  H  H177  1  0.61920000  0.37240000  0.06620000  1.0
  H  H178  1  0.62460000  0.50340000  0.99110000  1.0
  H  H179  1  0.46060000  0.41810000  0.87190000  1.0
  H  H180  1  0.56200000  0.56830000  0.93300000  1.0
  H  H181  1  0.38970000  0.48370000  0.82070000  1.0
  H  H182  1  0.12640000  0.49120000  0.24480000  1.0
  H  H183  1  0.15970000  0.46290000  0.41660000  1.0
  H  H184  1  0.21230000  0.55930000  0.27280000  1.0
  H  H185  1  0.24820000  0.52860000  0.44390000  1.0
  H  H186  1  0.39970000  0.65440000  0.39540000  1.0
  H  H187  1  0.14190000  0.62730000  0.32490000  1.0
  H  H188  1  0.37500000  0.73310000  0.36960000  1.0
  H  H189  1  0.11570000  0.70710000  0.30420000  1.0
  H  H190  1  0.99960000  0.32890000  0.44470000  1.0
  H  H191  1  0.84510000  0.41650000  0.50190000  1.0
  H  H192  1  0.08090000  0.31400000  0.54410000  1.0
  H  H193  1  0.92940000  0.40460000  0.59940000  1.0
  H  H194  1  0.02670000  0.26110000  0.63370000  1.0
  H  H195  1  0.21680000  0.35850000  0.69180000  1.0
  H  H196  1  0.12550000  0.20120000  0.67720000  1.0
  H  H197  1  0.31610000  0.29900000  0.73550000  1.0
  H  H198  1  0.70930000  0.23890000  0.34290000  1.0
  H  H199  1  0.45170000  0.25620000  0.30280000  1.0
  H  H200  1  0.69320000  0.15910000  0.36120000  1.0
  H  H201  1  0.43550000  0.17760000  0.32300000  1.0
  H  H202  1  0.58130000  0.11770000  0.24960000  1.0
  H  H203  1  0.57120000  0.02710000  0.37740000  1.0
  H  H204  1  0.63160000  0.05780000  0.20140000  1.0
  H  H205  1  0.61480000  0.96730000  0.32650000  1.0
  H  H206  1  0.64790000  0.47120000  0.40590000  1.0
  H  H207  1  0.43960000  0.52540000  0.28510000  1.0
  H  H208  1  0.65430000  0.53710000  0.46560000  1.0
  H  H209  1  0.45330000  0.59420000  0.34040000  1.0
  H  H210  1  0.71990000  0.63200000  0.50090000  1.0
  H  H211  1  0.48890000  0.59660000  0.51870000  1.0
  H  H212  1  0.77880000  0.64000000  0.60480000  1.0
  H  H213  1  0.54440000  0.60670000  0.62220000  1.0
  H  H214  1  0.38450000  0.32790000  0.07140000  1.0
  H  H215  1  0.33510000  0.35430000  0.09850000  1.0
  C  C216  1  0.73990000  0.05870000  0.66130000  1.0
  C  C217  1  0.73000000  0.00633000  0.65280000  1.0
  C  C218  1  0.80260000  0.97640000  0.66290000  1.0
  C  C219  1  0.64600000  0.98673000  0.63430000  1.0
  C  C220  1  0.79110000  0.92795000  0.65580000  1.0
  C  C221  1  0.63520000  0.93834000  0.62590000  1.0
  C  C222  1  0.70790000  0.90959000  0.63650000  1.0
  C  C223  1  0.75280000  0.82780000  0.64000000  1.0
  C  C224  1  0.78290000  0.80810000  0.59850000  1.0
  C  C225  1  0.77970000  0.81190000  0.69690000  1.0
  C  C226  1  0.83930000  0.76930000  0.61250000  1.0
  C  C227  1  0.83520000  0.77260000  0.71110000  1.0
  C  C228  1  0.86440000  0.75083000  0.67000000  1.0
  C  C229  1  0.92360000  0.70896000  0.68520000  1.0
  C  C230  1  0.41590000  0.11689000  0.63350000  1.0
  C  C231  1  0.32750000  0.10663000  0.58980000  1.0
  C  C232  1  0.31930000  0.07970000  0.53930000  1.0
  C  C233  1  0.25290000  0.12350000  0.59950000  1.0
  C  C234  1  0.23650000  0.07090000  0.49840000  1.0
  C  C235  1  0.16930000  0.11540000  0.55910000  1.0
  C  C236  1  0.16300000  0.08900000  0.50890000  1.0
  C  C237  1  0.04830000  0.04490000  0.43780000  1.0
  C  C238  1  0.07840000  0.00080000  0.45590000  1.0
  C  C239  1  0.97930000  0.05140000  0.38550000  1.0
  C  C240  1  0.04000000  0.96200000  0.42150000  1.0
  C  C241  1  0.93900000  0.01220000  0.35400000  1.0
  C  C242  1  0.96920000  0.96770000  0.37030000  1.0
  C  C243  1  0.93010000  0.92520000  0.33280000  1.0
  C  C244  1  0.57070000  0.07023000  0.81090000  1.0
  C  C245  1  0.63260000  0.02885000  0.82810000  1.0
  C  C246  1  0.64970000  0.00090000  0.78520000  1.0
  C  C247  1  0.67000000  0.01784000  0.88720000  1.0
  C  C248  1  0.70200000  0.96040000  0.80190000  1.0
  C  C249  1  0.73780000  0.95023000  0.86120000  1.0
  C  C250  1  0.72270000  0.97859000  0.90350000  1.0
  C  C251  1  0.77290000  0.86698000  0.86220000  1.0
  C  C252  1  0.84280000  0.83503000  0.87600000  1.0
  C  C253  1  0.68850000  0.85125000  0.83460000  1.0
  C  C254  1  0.82780000  0.78797000  0.86120000  1.0
  C  C255  1  0.74230000  0.77123000  0.83340000  1.0
  C  C256  1  0.67310000  0.80349000  0.82140000  1.0
  C  C257  1  0.72690000  0.72029000  0.81680000  1.0
  C  C258  1  0.35300000  0.12002000  0.90210000  1.0
  C  C259  1  0.41280000  0.12745000  0.96350000  1.0
  C  C260  1  0.48380000  0.15680000  0.97580000  1.0
  C  C261  1  0.39270000  0.10430000  0.01040000  1.0
  C  C262  1  0.53280000  0.16550000  0.03510000  1.0
  C  C263  1  0.44200000  0.11170000  0.06850000  1.0
  C  C264  1  0.50930000  0.14310000  0.08080000  1.0
  C  C265  1  0.61300000  0.18580000  0.15980000  1.0
  C  C266  1  0.58500000  0.23160000  0.15440000  1.0
  C  C267  1  0.69910000  0.17310000  0.18930000  1.0
  C  C268  1  0.64390000  0.26730000  0.18000000  1.0
  C  C269  1  0.75800000  0.20860000  0.21480000  1.0
  C  C270  1  0.73100000  0.25578000  0.20990000  1.0
  C  C271  1  0.79680000  0.29325000  0.23850000  1.0
  C  C272  1  0.09190000  0.19401000  0.80140000  1.0
  C  C273  1  0.08200000  0.24441000  0.81930000  1.0
  C  C274  1  0.15330000  0.27350000  0.83780000  1.0
  C  C275  1  0.00110000  0.26330000  0.81440000  1.0
  C  C276  1  0.14400000  0.32130000  0.84900000  1.0
  C  C277  1  0.99100000  0.31030000  0.82600000  1.0
  C  C278  1  0.06280000  0.33905000  0.84200000  1.0
  C  C279  1  0.07820000  0.42115000  0.81990000  1.0
  C  C280  1  0.09140000  0.41240000  0.76650000  1.0
  C  C281  1  0.08460000  0.46641000  0.84220000  1.0
  C  C282  1  0.12010000  0.44856000  0.73730000  1.0
  C  C283  1  0.11100000  0.50184000  0.81170000  1.0
  C  C284  1  0.13210000  0.49371000  0.76030000  1.0
  C  C285  1  0.16880000  0.53211000  0.73190000  1.0
  C  C286  1  0.03860000  0.05091000  0.80110000  1.0
  C  C287  1  0.04240000  0.00820000  0.83960000  1.0
  C  C288  1  0.10700000  0.00450000  0.89300000  1.0
  C  C289  1  0.98480000  0.97190000  0.82120000  1.0
  C  C290  1  0.11180000  0.96480000  0.92820000  1.0
  C  C291  1  0.99150000  0.93110000  0.85450000  1.0
  C  C292  1  0.05490000  0.92850000  0.90850000  1.0
  C  C293  1  0.09790000  0.88490000  0.00160000  1.0
  C  C294  1  0.18470000  0.87290000  0.02560000  1.0
  C  C295  1  0.04690000  0.89360000  0.03600000  1.0
  C  C296  1  0.21980000  0.86800000  0.08780000  1.0
  C  C297  1  0.08050000  0.88810000  0.09830000  1.0
  C  C298  1  0.16700000  0.87500000  0.12400000  1.0
  C  C299  1  0.20410000  0.86962000  0.19110000  1.0
  C  C300  1  0.76010000  0.55870000  0.83870000  1.0
  C  C301  1  0.77000000  0.50633000  0.84720000  1.0
  C  C302  1  0.69740000  0.47640000  0.83710000  1.0
  C  C303  1  0.85400000  0.48673000  0.86570000  1.0
  C  C304  1  0.70890000  0.42795000  0.84420000  1.0
  C  C305  1  0.86480000  0.43834000  0.87410000  1.0
  C  C306  1  0.79210000  0.40959000  0.86350000  1.0
  C  C307  1  0.74720000  0.32780000  0.86000000  1.0
  C  C308  1  0.71710000  0.30810000  0.90150000  1.0
  C  C309  1  0.72030000  0.31190000  0.80310000  1.0
  C  C310  1  0.66070000  0.26930000  0.88750000  1.0
  C  C311  1  0.66480000  0.27260000  0.78890000  1.0
  C  C312  1  0.63560000  0.25083000  0.83000000  1.0
  C  C313  1  0.57640000  0.20896000  0.81480000  1.0
  C  C314  1  0.08410000  0.61689000  0.86650000  1.0
  C  C315  1  0.17250000  0.60663000  0.91020000  1.0
  C  C316  1  0.18070000  0.57970000  0.96070000  1.0
  C  C317  1  0.24710000  0.62350000  0.90050000  1.0
  C  C318  1  0.26350000  0.57090000  0.00160000  1.0
  C  C319  1  0.33070000  0.61540000  0.94090000  1.0
  C  C320  1  0.33700000  0.58900000  0.99110000  1.0
  C  C321  1  0.45170000  0.54490000  0.06220000  1.0
  C  C322  1  0.42160000  0.50080000  0.04410000  1.0
  C  C323  1  0.52070000  0.55140000  0.11450000  1.0
  C  C324  1  0.46000000  0.46200000  0.07850000  1.0
  C  C325  1  0.56100000  0.51220000  0.14600000  1.0
  C  C326  1  0.53080000  0.46770000  0.12970000  1.0
  C  C327  1  0.56990000  0.42520000  0.16720000  1.0
  C  C328  1  0.92930000  0.57023000  0.68910000  1.0
  C  C329  1  0.86740000  0.52885000  0.67190000  1.0
  C  C330  1  0.85030000  0.50090000  0.71480000  1.0
  C  C331  1  0.83000000  0.51784000  0.61280000  1.0
  C  C332  1  0.79800000  0.46040000  0.69810000  1.0
  C  C333  1  0.76220000  0.45023000  0.63880000  1.0
  C  C334  1  0.77730000  0.47859000  0.59650000  1.0
  C  C335  1  0.72710000  0.36698000  0.63780000  1.0
  C  C336  1  0.65720000  0.33503000  0.62400000  1.0
  C  C337  1  0.81150000  0.35125000  0.66540000  1.0
  C  C338  1  0.67220000  0.28797000  0.63880000  1.0
  C  C339  1  0.75770000  0.27123000  0.66666667  1.0
  C  C340  1  0.82690000  0.30349000  0.67860000  1.0
  C  C341  1  0.77310000  0.22029000  0.68320000  1.0
  C  C342  1  0.14700000  0.62002000  0.59790000  1.0
  C  C343  1  0.08720000  0.62745000  0.53650000  1.0
  C  C344  1  0.01620000  0.65680000  0.52420000  1.0
  C  C345  1  0.10730000  0.60430000  0.48960000  1.0
  C  C346  1  0.96720000  0.66550000  0.46490000  1.0
  C  C347  1  0.05800000  0.61170000  0.43150000  1.0
  C  C348  1  0.99070000  0.64310000  0.41920000  1.0
  C  C349  1  0.88700000  0.68580000  0.34020000  1.0
  C  C350  1  0.91500000  0.73160000  0.34560000  1.0
  C  C351  1  0.80090000  0.67310000  0.31070000  1.0
  C  C352  1  0.85610000  0.76730000  0.32000000  1.0
  C  C353  1  0.74200000  0.70860000  0.28520000  1.0
  C  C354  1  0.76900000  0.75578000  0.29010000  1.0
  C  C355  1  0.70320000  0.79325000  0.26150000  1.0
  C  C356  1  0.40810000  0.69401000  0.69860000  1.0
  C  C357  1  0.41800000  0.74441000  0.68070000  1.0
  C  C358  1  0.34670000  0.77350000  0.66220000  1.0
  C  C359  1  0.49890000  0.76330000  0.68560000  1.0
  C  C360  1  0.35600000  0.82130000  0.65100000  1.0
  C  C361  1  0.50900000  0.81030000  0.67400000  1.0
  C  C362  1  0.43720000  0.83905000  0.65800000  1.0
  C  C363  1  0.42180000  0.92115000  0.68010000  1.0
  C  C364  1  0.40860000  0.91240000  0.73350000  1.0
  C  C365  1  0.41540000  0.96641000  0.65780000  1.0
  C  C366  1  0.37990000  0.94856000  0.76270000  1.0
  C  C367  1  0.38900000  0.00184000  0.68830000  1.0
  C  C368  1  0.36790000  0.99371000  0.73970000  1.0
  C  C369  1  0.33120000  0.03211000  0.76810000  1.0
  C  C370  1  0.46140000  0.55091000  0.69890000  1.0
  C  C371  1  0.45760000  0.50820000  0.66040000  1.0
  C  C372  1  0.39300000  0.50450000  0.60700000  1.0
  C  C373  1  0.51520000  0.47190000  0.67880000  1.0
  C  C374  1  0.38820000  0.46480000  0.57180000  1.0
  C  C375  1  0.50850000  0.43110000  0.64550000  1.0
  C  C376  1  0.44510000  0.42850000  0.59150000  1.0
  C  C377  1  0.40210000  0.38490000  0.49840000  1.0
  C  C378  1  0.31530000  0.37290000  0.47440000  1.0
  C  C379  1  0.45310000  0.39360000  0.46400000  1.0
  C  C380  1  0.28020000  0.36800000  0.41220000  1.0
  C  C381  1  0.41950000  0.38810000  0.40170000  1.0
  C  C382  1  0.33300000  0.37500000  0.37600000  1.0
  C  C383  1  0.29590000  0.36962000  0.30890000  1.0
  C  C384  1  0.26010000  0.94130000  0.33870000  1.0
  C  C385  1  0.27000000  0.99367000  0.34720000  1.0
  C  C386  1  0.19740000  0.02360000  0.33710000  1.0
  C  C387  1  0.35400000  0.01327000  0.36570000  1.0
  C  C388  1  0.20890000  0.07205000  0.34420000  1.0
  C  C389  1  0.36480000  0.06166000  0.37410000  1.0
  C  C390  1  0.29210000  0.09041000  0.36350000  1.0
  C  C391  1  0.24720000  0.17220000  0.36000000  1.0
  C  C392  1  0.21710000  0.19190000  0.40150000  1.0
  C  C393  1  0.22030000  0.18810000  0.30310000  1.0
  C  C394  1  0.16070000  0.23070000  0.38750000  1.0
  C  C395  1  0.16480000  0.22740000  0.28890000  1.0
  C  C396  1  0.13560000  0.24917000  0.33000000  1.0
  C  C397  1  0.07640000  0.29104000  0.31480000  1.0
  C  C398  1  0.58410000  0.88311000  0.36650000  1.0
  C  C399  1  0.67250000  0.89337000  0.41020000  1.0
  C  C400  1  0.68070000  0.92030000  0.46070000  1.0
  C  C401  1  0.74710000  0.87650000  0.40050000  1.0
  C  C402  1  0.76350000  0.92910000  0.50160000  1.0
  C  C403  1  0.83070000  0.88460000  0.44090000  1.0
  C  C404  1  0.83700000  0.91100000  0.49110000  1.0
  C  C405  1  0.95170000  0.95510000  0.56220000  1.0
  C  C406  1  0.92160000  0.99920000  0.54410000  1.0
  C  C407  1  0.02070000  0.94860000  0.61450000  1.0
  C  C408  1  0.96000000  0.03800000  0.57850000  1.0
  C  C409  1  0.06100000  0.98780000  0.64600000  1.0
  C  C410  1  0.03080000  0.03230000  0.62970000  1.0
  C  C411  1  0.06990000  0.07480000  0.66720000  1.0
  C  C412  1  0.42930000  0.92977000  0.18910000  1.0
  C  C413  1  0.36740000  0.97115000  0.17190000  1.0
  C  C414  1  0.35030000  0.99910000  0.21480000  1.0
  C  C415  1  0.33000000  0.98216000  0.11280000  1.0
  C  C416  1  0.29800000  0.03960000  0.19810000  1.0
  C  C417  1  0.26220000  0.04977000  0.13880000  1.0
  C  C418  1  0.27730000  0.02141000  0.09650000  1.0
  C  C419  1  0.22710000  0.13302000  0.13780000  1.0
  C  C420  1  0.15720000  0.16497000  0.12400000  1.0
  C  C421  1  0.31150000  0.14875000  0.16540000  1.0
  C  C422  1  0.17220000  0.21203000  0.13880000  1.0
  C  C423  1  0.25770000  0.22877000  0.16660000  1.0
  C  C424  1  0.32690000  0.19651000  0.17860000  1.0
  C  C425  1  0.27310000  0.27971000  0.18320000  1.0
  C  C426  1  0.64700000  0.87998000  0.09790000  1.0
  C  C427  1  0.58720000  0.87255000  0.03650000  1.0
  C  C428  1  0.51620000  0.84320000  0.02420000  1.0
  C  C429  1  0.60730000  0.89570000  0.98960000  1.0
  C  C430  1  0.46720000  0.83450000  0.96490000  1.0
  C  C431  1  0.55800000  0.88830000  0.93150000  1.0
  C  C432  1  0.49070000  0.85690000  0.91920000  1.0
  C  C433  1  0.38700000  0.81420000  0.84020000  1.0
  C  C434  1  0.41500000  0.76840000  0.84560000  1.0
  C  C435  1  0.30090000  0.82690000  0.81070000  1.0
  C  C436  1  0.35610000  0.73270000  0.82000000  1.0
  C  C437  1  0.24200000  0.79140000  0.78520000  1.0
  C  C438  1  0.26900000  0.74422000  0.79010000  1.0
  C  C439  1  0.20320000  0.70675000  0.76150000  1.0
  C  C440  1  0.90810000  0.80599000  0.19860000  1.0
  C  C441  1  0.91800000  0.75559000  0.18070000  1.0
  C  C442  1  0.84670000  0.72650000  0.16220000  1.0
  C  C443  1  0.99890000  0.73670000  0.18560000  1.0
  C  C444  1  0.85600000  0.67870000  0.15100000  1.0
  C  C445  1  0.00900000  0.68970000  0.17400000  1.0
  C  C446  1  0.93720000  0.66095000  0.15800000  1.0
  C  C447  1  0.92180000  0.57885000  0.18010000  1.0
  C  C448  1  0.90860000  0.58760000  0.23350000  1.0
  C  C449  1  0.91540000  0.53359000  0.15780000  1.0
  C  C450  1  0.87990000  0.55144000  0.26270000  1.0
  C  C451  1  0.88900000  0.49816000  0.18830000  1.0
  C  C452  1  0.86790000  0.50629000  0.23970000  1.0
  C  C453  1  0.83120000  0.46789000  0.26810000  1.0
  C  C454  1  0.96140000  0.94909000  0.19890000  1.0
  C  C455  1  0.95760000  0.99180000  0.16040000  1.0
  C  C456  1  0.89300000  0.99550000  0.10700000  1.0
  C  C457  1  0.01520000  0.02810000  0.17880000  1.0
  C  C458  1  0.88820000  0.03520000  0.07180000  1.0
  C  C459  1  0.00850000  0.06890000  0.14550000  1.0
  C  C460  1  0.94510000  0.07150000  0.09150000  1.0
  C  C461  1  0.90210000  0.11510000  0.99840000  1.0
  C  C462  1  0.81530000  0.12710000  0.97440000  1.0
  C  C463  1  0.95310000  0.10640000  0.96400000  1.0
  C  C464  1  0.78020000  0.13200000  0.91220000  1.0
  C  C465  1  0.91950000  0.11190000  0.90170000  1.0
  C  C466  1  0.83300000  0.12500000  0.87600000  1.0
  C  C467  1  0.79590000  0.13038000  0.80890000  1.0
  C  C468  1  0.23990000  0.44130000  0.16130000  1.0
  C  C469  1  0.23000000  0.49367000  0.15280000  1.0
  C  C470  1  0.30260000  0.52360000  0.16290000  1.0
  C  C471  1  0.14600000  0.51327000  0.13430000  1.0
  C  C472  1  0.29110000  0.57205000  0.15580000  1.0
  C  C473  1  0.13520000  0.56166000  0.12590000  1.0
  C  C474  1  0.20790000  0.59041000  0.13650000  1.0
  C  C475  1  0.25280000  0.67220000  0.14000000  1.0
  C  C476  1  0.28290000  0.69190000  0.09850000  1.0
  C  C477  1  0.27970000  0.68810000  0.19690000  1.0
  C  C478  1  0.33930000  0.73070000  0.11250000  1.0
  C  C479  1  0.33520000  0.72740000  0.21110000  1.0
  C  C480  1  0.36440000  0.74917000  0.17000000  1.0
  C  C481  1  0.42360000  0.79104000  0.18520000  1.0
  C  C482  1  0.91590000  0.38311000  0.13350000  1.0
  C  C483  1  0.82750000  0.39337000  0.08980000  1.0
  C  C484  1  0.81930000  0.42030000  0.03930000  1.0
  C  C485  1  0.75290000  0.37650000  0.09950000  1.0
  C  C486  1  0.73650000  0.42910000  0.99840000  1.0
  C  C487  1  0.66930000  0.38460000  0.05910000  1.0
  C  C488  1  0.66300000  0.41100000  0.00890000  1.0
  C  C489  1  0.54830000  0.45510000  0.93780000  1.0
  C  C490  1  0.57840000  0.49920000  0.95590000  1.0
  C  C491  1  0.47930000  0.44860000  0.88550000  1.0
  C  C492  1  0.54000000  0.53800000  0.92150000  1.0
  C  C493  1  0.43900000  0.48780000  0.85400000  1.0
  C  C494  1  0.46920000  0.53230000  0.87030000  1.0
  C  C495  1  0.43010000  0.57480000  0.83280000  1.0
  C  C496  1  0.07070000  0.42977000  0.31090000  1.0
  C  C497  1  0.13260000  0.47115000  0.32810000  1.0
  C  C498  1  0.14970000  0.49910000  0.28520000  1.0
  C  C499  1  0.17000000  0.48216000  0.38720000  1.0
  C  C500  1  0.20200000  0.53960000  0.30190000  1.0
  C  C501  1  0.23780000  0.54977000  0.36120000  1.0
  C  C502  1  0.22270000  0.52141000  0.40350000  1.0
  C  C503  1  0.27290000  0.63302000  0.36220000  1.0
  C  C504  1  0.34280000  0.66497000  0.37600000  1.0
  C  C505  1  0.18850000  0.64875000  0.33460000  1.0
  C  C506  1  0.32780000  0.71203000  0.36120000  1.0
  C  C507  1  0.24230000  0.72877000  0.33340000  1.0
  C  C508  1  0.17310000  0.69651000  0.32140000  1.0
  C  C509  1  0.22690000  0.77971000  0.31680000  1.0
  C  C510  1  0.85300000  0.37998000  0.40210000  1.0
  C  C511  1  0.91280000  0.37255000  0.46350000  1.0
  C  C512  1  0.98380000  0.34320000  0.47580000  1.0
  C  C513  1  0.89270000  0.39570000  0.51040000  1.0
  C  C514  1  0.03280000  0.33450000  0.53510000  1.0
  C  C515  1  0.94200000  0.38830000  0.56850000  1.0
  C  C516  1  0.00930000  0.35690000  0.58080000  1.0
  C  C517  1  0.11300000  0.31420000  0.65980000  1.0
  C  C518  1  0.08500000  0.26840000  0.65440000  1.0
  C  C519  1  0.19910000  0.32690000  0.68930000  1.0
  C  C520  1  0.14390000  0.23270000  0.68000000  1.0
  C  C521  1  0.25800000  0.29140000  0.71480000  1.0
  C  C522  1  0.23100000  0.24422000  0.70990000  1.0
  C  C523  1  0.29680000  0.20675000  0.73850000  1.0
  C  C524  1  0.59190000  0.30599000  0.30140000  1.0
  C  C525  1  0.58200000  0.25559000  0.31930000  1.0
  C  C526  1  0.65330000  0.22650000  0.33780000  1.0
  C  C527  1  0.50110000  0.23670000  0.31440000  1.0
  C  C528  1  0.64400000  0.17870000  0.34900000  1.0
  C  C529  1  0.49100000  0.18970000  0.32600000  1.0
  C  C530  1  0.56280000  0.16095000  0.34200000  1.0
  C  C531  1  0.57820000  0.07885000  0.31990000  1.0
  C  C532  1  0.59140000  0.08760000  0.26650000  1.0
  C  C533  1  0.58460000  0.03359000  0.34220000  1.0
  C  C534  1  0.62010000  0.05144000  0.23730000  1.0
  C  C535  1  0.61100000  0.99816000  0.31170000  1.0
  C  C536  1  0.63210000  0.00629000  0.26030000  1.0
  C  C537  1  0.66880000  0.96789000  0.23190000  1.0
  C  C538  1  0.53860000  0.44909000  0.30110000  1.0
  C  C539  1  0.54240000  0.49180000  0.33960000  1.0
  C  C540  1  0.60700000  0.49550000  0.39300000  1.0
  C  C541  1  0.48480000  0.52810000  0.32120000  1.0
  C  C542  1  0.61180000  0.53520000  0.42820000  1.0
  C  C543  1  0.49150000  0.56890000  0.35450000  1.0
  C  C544  1  0.55490000  0.57150000  0.40850000  1.0
  C  C545  1  0.59790000  0.61510000  0.50160000  1.0
  C  C546  1  0.68470000  0.62710000  0.52560000  1.0
  C  C547  1  0.54690000  0.60640000  0.53600000  1.0
  C  C548  1  0.71980000  0.63200000  0.58780000  1.0
  C  C549  1  0.58050000  0.61190000  0.59830000  1.0
  C  C550  1  0.66700000  0.62500000  0.62400000  1.0
  C  C551  1  0.70410000  0.63038000  0.69110000  1.0
  O  O552  1  0.80970000  0.07773000  0.65867000  1.0
  O  O553  1  0.67700000  0.08052000  0.67070000  1.0
  O  O554  1  0.68810000  0.86254000  0.62290000  1.0
  O  O555  1  0.95730000  0.69256000  0.64795000  1.0
  O  O556  1  0.94290000  0.69131000  0.73823000  1.0
  O  O557  1  0.48430000  0.10245000  0.62384000  1.0
  O  O558  1  0.41870000  0.14139000  0.67919000  1.0
  O  O559  1  0.07910000  0.08623000  0.46880000  1.0
  O  O560  1  0.85120000  0.92894000  0.30010000  1.0
  O  O561  1  0.97580000  0.88905000  0.33501000  1.0
  O  O562  1  0.55180000  0.08808000  0.75745000  1.0
  O  O563  1  0.53670000  0.08640000  0.84795000  1.0
  O  O564  1  0.79590000  0.91261000  0.88100000  1.0
  O  O565  1  0.79370000  0.69475000  0.82042000  1.0
  O  O566  1  0.65000000  0.70510000  0.80200000  1.0
  O  O567  1  0.37110000  0.13831000  0.85717000  1.0
  O  O568  1  0.28470000  0.09636000  0.89458000  1.0
  O  O569  1  0.55460000  0.14820000  0.13970000  1.0
  O  O570  1  0.87570000  0.28160000  0.26132000  1.0
  O  O571  1  0.77340000  0.33648000  0.23731000  1.0
  O  O572  1  0.16790000  0.17694000  0.81549000  1.0
  O  O573  1  0.02410000  0.17274000  0.77245000  1.0
  O  O574  1  0.05030000  0.38690000  0.85350000  1.0
  O  O575  1  0.21650000  0.52309000  0.70024000  1.0
  O  O576  1  0.15350000  0.57488000  0.74324000  1.0
  O  O577  1  0.10660000  0.07658000  0.81407000  1.0
  O  O578  1  0.97100000  0.05875000  0.75851000  1.0
  O  O579  1  0.05860000  0.88584000  0.93930000  1.0
  O  O580  1  0.28440000  0.86290000  0.21217000  1.0
  O  O581  1  0.15140000  0.87304000  0.22044000  1.0
  O  O582  1  0.88300000  0.16100000  0.60490000  1.0
  O  O583  1  0.69030000  0.57773000  0.84133000  1.0
  O  O584  1  0.82300000  0.58052000  0.82930000  1.0
  O  O585  1  0.81190000  0.36254000  0.87710000  1.0
  O  O586  1  0.54270000  0.19256000  0.85205000  1.0
  O  O587  1  0.55710000  0.19131000  0.76177000  1.0
  O  O588  1  0.01570000  0.60245000  0.87616000  1.0
  O  O589  1  0.08130000  0.64139000  0.82081000  1.0
  O  O590  1  0.42090000  0.58623000  0.03120000  1.0
  O  O591  1  0.64880000  0.42894000  0.19990000  1.0
  O  O592  1  0.52420000  0.38905000  0.16499000  1.0
  O  O593  1  0.94820000  0.58808000  0.74255000  1.0
  O  O594  1  0.96330000  0.58640000  0.65205000  1.0
  O  O595  1  0.70410000  0.41261000  0.61900000  1.0
  O  O596  1  0.70630000  0.19475000  0.67958000  1.0
  O  O597  1  0.85000000  0.20510000  0.69800000  1.0
  O  O598  1  0.12890000  0.63831000  0.64283000  1.0
  O  O599  1  0.21530000  0.59636000  0.60542000  1.0
  O  O600  1  0.94540000  0.64820000  0.36030000  1.0
  O  O601  1  0.62430000  0.78160000  0.23868000  1.0
  O  O602  1  0.72660000  0.83648000  0.26269000  1.0
  O  O603  1  0.33210000  0.67694000  0.68451000  1.0
  O  O604  1  0.47590000  0.67274000  0.72755000  1.0
  O  O605  1  0.44970000  0.88690000  0.64650000  1.0
  O  O606  1  0.28350000  0.02309000  0.79976000  1.0
  O  O607  1  0.34650000  0.07488000  0.75676000  1.0
  O  O608  1  0.39340000  0.57658000  0.68593000  1.0
  O  O609  1  0.52900000  0.55875000  0.74149000  1.0
  O  O610  1  0.44140000  0.38584000  0.56070000  1.0
  O  O611  1  0.21560000  0.36290000  0.28783000  1.0
  O  O612  1  0.34860000  0.37304000  0.27956000  1.0
  O  O613  1  0.61700000  0.66100000  0.89510000  1.0
  O  O614  1  0.19030000  0.92227000  0.34133000  1.0
  O  O615  1  0.32300000  0.91948000  0.32930000  1.0
  O  O616  1  0.31190000  0.13746000  0.37710000  1.0
  O  O617  1  0.04270000  0.30744000  0.35205000  1.0
  O  O618  1  0.05710000  0.30869000  0.26177000  1.0
  O  O619  1  0.51570000  0.89755000  0.37616000  1.0
  O  O620  1  0.58130000  0.85861000  0.32081000  1.0
  O  O621  1  0.92090000  0.91377000  0.53120000  1.0
  O  O622  1  0.14880000  0.07106000  0.69990000  1.0
  O  O623  1  0.02420000  0.11095000  0.66499000  1.0
  O  O624  1  0.44820000  0.91192000  0.24255000  1.0
  O  O625  1  0.46330000  0.91360000  0.15205000  1.0
  O  O626  1  0.20410000  0.08739000  0.11900000  1.0
  O  O627  1  0.20630000  0.30525000  0.17958000  1.0
  O  O628  1  0.35000000  0.29490000  0.19800000  1.0
  O  O629  1  0.62890000  0.86169000  0.14283000  1.0
  O  O630  1  0.71530000  0.90364000  0.10542000  1.0
  O  O631  1  0.44540000  0.85180000  0.86030000  1.0
  O  O632  1  0.12430000  0.71840000  0.73868000  1.0
  O  O633  1  0.22660000  0.66352000  0.76269000  1.0
  O  O634  1  0.83210000  0.82306000  0.18451000  1.0
  O  O635  1  0.97590000  0.82726000  0.22755000  1.0
  O  O636  1  0.94970000  0.61310000  0.14650000  1.0
  O  O637  1  0.78350000  0.47691000  0.29976000  1.0
  O  O638  1  0.84650000  0.42512000  0.25676000  1.0
  O  O639  1  0.89340000  0.92342000  0.18593000  1.0
  O  O640  1  0.02900000  0.94125000  0.24149000  1.0
  O  O641  1  0.94140000  0.11416000  0.06070000  1.0
  O  O642  1  0.71560000  0.13710000  0.78783000  1.0
  O  O643  1  0.84860000  0.12696000  0.77956000  1.0
  O  O644  1  0.11700000  0.83900000  0.39510000  1.0
  O  O645  1  0.30970000  0.42227000  0.15867000  1.0
  O  O646  1  0.17700000  0.41948000  0.17070000  1.0
  O  O647  1  0.18810000  0.63746000  0.12290000  1.0
  O  O648  1  0.45730000  0.80744000  0.14795000  1.0
  O  O649  1  0.44290000  0.80869000  0.23823000  1.0
  O  O650  1  0.98430000  0.39755000  0.12384000  1.0
  O  O651  1  0.91870000  0.35861000  0.17919000  1.0
  O  O652  1  0.57910000  0.41377000  0.96880000  1.0
  O  O653  1  0.35120000  0.57106000  0.80010000  1.0
  O  O654  1  0.47580000  0.61095000  0.83501000  1.0
  O  O655  1  0.05180000  0.41192000  0.25745000  1.0
  O  O656  1  0.03670000  0.41360000  0.34795000  1.0
  O  O657  1  0.29590000  0.58739000  0.38100000  1.0
  O  O658  1  0.29370000  0.80525000  0.32042000  1.0
  O  O659  1  0.15000000  0.79490000  0.30200000  1.0
  O  O660  1  0.87110000  0.36169000  0.35717000  1.0
  O  O661  1  0.78470000  0.40364000  0.39458000  1.0
  O  O662  1  0.05460000  0.35180000  0.63970000  1.0
  O  O663  1  0.37570000  0.21840000  0.76132000  1.0
  O  O664  1  0.27340000  0.16352000  0.73731000  1.0
  O  O665  1  0.66790000  0.32306000  0.31549000  1.0
  O  O666  1  0.52410000  0.32726000  0.27245000  1.0
  O  O667  1  0.55030000  0.11310000  0.35350000  1.0
  O  O668  1  0.71650000  0.97691000  0.20024000  1.0
  O  O669  1  0.65350000  0.92512000  0.24324000  1.0
  O  O670  1  0.60660000  0.42342000  0.31407000  1.0
  O  O671  1  0.47100000  0.44125000  0.25851000  1.0
  O  O672  1  0.55860000  0.61416000  0.43930000  1.0
  O  O673  1  0.78440000  0.63710000  0.71217000  1.0
  O  O674  1  0.65140000  0.62696000  0.72044000  1.0
  O  O675  1  0.38300000  0.33900000  0.10490000  1.0
