# generated using pymatgen
data_Cd3H22C28(N5O6)2
_symmetry_space_group_name_H-M   'P 1'
_cell_length_a   10.19200000
_cell_length_b   11.61100000
_cell_length_c   16.84800000
_cell_angle_alpha   110.04000000
_cell_angle_beta   97.66000000
_cell_angle_gamma   92.04000000
_symmetry_Int_Tables_number   1
_chemical_formula_structural   Cd3H22C28(N5O6)2
_chemical_formula_sum   'Cd6 H44 C56 N20 O24'
_cell_volume   1849.26428145
_cell_formula_units_Z   2
loop_
 _symmetry_equiv_pos_site_id
 _symmetry_equiv_pos_as_xyz
  1  'x, y, z'
loop_
 _atom_site_type_symbol
 _atom_site_label
 _atom_site_symmetry_multiplicity
 _atom_site_fract_x
 _atom_site_fract_y
 _atom_site_fract_z
 _atom_site_occupancy
  Cd  Cd0  1  0.47790000  0.52750000  0.86884000  1.0
  Cd  Cd1  1  0.55435000  0.96901000  0.25420000  1.0
  Cd  Cd2  1  0.44790000  0.43226000  0.58961000  1.0
  Cd  Cd3  1  0.52210000  0.47250000  0.13116000  1.0
  Cd  Cd4  1  0.44565000  0.03099000  0.74580000  1.0
  Cd  Cd5  1  0.55210000  0.56774000  0.41039000  1.0
  H  H6  1  0.76340000  0.30530000  0.61170000  1.0
  H  H7  1  0.96050000  0.28560000  0.56510000  1.0
  H  H8  1  0.11530000  0.59020000  0.77220000  1.0
  H  H9  1  0.91370000  0.59740000  0.81660000  1.0
  H  H10  1  0.08220000  0.41450000  0.98670000  1.0
  H  H11  1  0.90300000  0.29130000  0.97850000  1.0
  H  H12  1  0.90720000  0.12580000  0.72750000  1.0
  H  H13  1  0.10510000  0.22890000  0.73900000  1.0
  H  H14  1  0.08110000  0.08390000  0.19610000  1.0
  H  H15  1  0.27330000  0.21540000  0.25500000  1.0
  H  H16  1  0.11020000  0.38590000  0.46450000  1.0
  H  H17  1  0.91800000  0.25440000  0.40560000  1.0
  H  H18  1  0.72000000  0.92190000  0.09220000  1.0
  H  H19  1  0.77690000  0.84370000  0.94430000  1.0
  H  H20  1  0.70250000  0.72630000  0.88530000  1.0
  H  H21  1  0.41700000  0.66490000  0.14180000  1.0
  H  H22  1  0.38710000  0.58400000  0.05020000  1.0
  H  H23  1  0.33120000  0.14780000  0.52480000  1.0
  H  H24  1  0.67920000  0.33350000  0.45760000  1.0
  H  H25  1  0.69030000  0.22620000  0.37960000  1.0
  H  H26  1  0.27050000  0.93550000  0.43330000  1.0
  H  H27  1  0.34020000  0.88730000  0.35780000  1.0
  H  H28  1  0.23660000  0.69470000  0.38830000  1.0
  H  H29  1  0.03950000  0.71440000  0.43490000  1.0
  H  H30  1  0.88470000  0.40980000  0.22780000  1.0
  H  H31  1  0.08630000  0.40260000  0.18340000  1.0
  H  H32  1  0.91780000  0.58550000  0.01330000  1.0
  H  H33  1  0.09700000  0.70870000  0.02150000  1.0
  H  H34  1  0.09280000  0.87420000  0.27250000  1.0
  H  H35  1  0.89490000  0.77110000  0.26100000  1.0
  H  H36  1  0.91890000  0.91610000  0.80390000  1.0
  H  H37  1  0.72670000  0.78460000  0.74500000  1.0
  H  H38  1  0.88980000  0.61410000  0.53550000  1.0
  H  H39  1  0.08200000  0.74560000  0.59440000  1.0
  H  H40  1  0.28000000  0.07810000  0.90780000  1.0
  H  H41  1  0.22310000  0.15630000  0.05570000  1.0
  H  H42  1  0.29750000  0.27370000  0.11470000  1.0
  H  H43  1  0.58300000  0.33510000  0.85820000  1.0
  H  H44  1  0.61290000  0.41600000  0.94980000  1.0
  H  H45  1  0.66880000  0.85220000  0.47520000  1.0
  H  H46  1  0.32080000  0.66650000  0.54240000  1.0
  H  H47  1  0.30970000  0.77380000  0.62040000  1.0
  H  H48  1  0.72950000  0.06450000  0.56670000  1.0
  H  H49  1  0.65980000  0.11270000  0.64220000  1.0
  C  C50  1  0.81000000  0.44830000  0.72050000  1.0
  C  C51  1  0.83500000  0.36070000  0.64500000  1.0
  C  C52  1  0.95100000  0.34850000  0.61550000  1.0
  C  C53  1  0.06600000  0.43950000  0.66666667  1.0
  C  C54  1  0.04600000  0.53110000  0.74020000  1.0
  C  C55  1  0.92400000  0.53500000  0.76620000  1.0
  C  C56  1  0.68000000  0.45500000  0.75090000  1.0
  C  C57  1  0.19700000  0.42800000  0.64140000  1.0
  C  C58  1  0.11300000  0.33560000  0.86390000  1.0
  C  C59  1  0.04900000  0.35300000  0.93500000  1.0
  C  C60  1  0.93900000  0.28030000  0.92880000  1.0
  C  C61  1  0.87700000  0.19280000  0.85620000  1.0
  C  C62  1  0.94600000  0.18070000  0.78080000  1.0
  C  C63  1  0.06100000  0.24480000  0.78610000  1.0
  C  C64  1  0.24500000  0.41240000  0.86610000  1.0
  C  C65  1  0.75800000  0.12400000  0.84810000  1.0
  C  C66  1  0.98050000  0.15610000  0.29500000  1.0
  C  C67  1  0.08690000  0.14440000  0.24990000  1.0
  C  C68  1  0.20210000  0.22320000  0.28520000  1.0
  C  C69  1  0.21080000  0.31370000  0.36560000  1.0
  C  C70  1  0.10430000  0.32540000  0.41070000  1.0
  C  C71  1  0.98920000  0.24660000  0.37540000  1.0
  C  C72  1  0.83300000  0.07830000  0.25350000  1.0
  C  C73  1  0.33000000  0.40690000  0.40070000  1.0
  C  C74  1  0.65200000  0.77830000  0.99750000  1.0
  C  C75  1  0.51000000  0.71930000  0.07030000  1.0
  C  C76  1  0.54900000  0.20110000  0.43630000  1.0
  C  C77  1  0.39800000  0.05340000  0.42590000  1.0
  C  C78  1  0.19000000  0.55170000  0.27950000  1.0
  C  C79  1  0.16500000  0.63930000  0.35500000  1.0
  C  C80  1  0.04900000  0.65150000  0.38450000  1.0
  C  C81  1  0.93400000  0.56050000  0.33340000  1.0
  C  C82  1  0.95400000  0.46890000  0.25980000  1.0
  C  C83  1  0.07600000  0.46500000  0.23380000  1.0
  C  C84  1  0.32000000  0.54500000  0.24910000  1.0
  C  C85  1  0.80300000  0.57200000  0.35860000  1.0
  C  C86  1  0.88700000  0.66440000  0.13610000  1.0
  C  C87  1  0.95100000  0.64700000  0.06500000  1.0
  C  C88  1  0.06100000  0.71970000  0.07120000  1.0
  C  C89  1  0.12300000  0.80720000  0.14380000  1.0
  C  C90  1  0.05400000  0.81930000  0.21920000  1.0
  C  C91  1  0.93900000  0.75520000  0.21390000  1.0
  C  C92  1  0.75500000  0.58760000  0.13390000  1.0
  C  C93  1  0.24200000  0.87600000  0.15190000  1.0
  C  C94  1  0.01950000  0.84390000  0.70500000  1.0
  C  C95  1  0.91310000  0.85560000  0.75010000  1.0
  C  C96  1  0.79790000  0.77680000  0.71480000  1.0
  C  C97  1  0.78920000  0.68630000  0.63440000  1.0
  C  C98  1  0.89570000  0.67460000  0.58930000  1.0
  C  C99  1  0.01080000  0.75340000  0.62460000  1.0
  C  C100  1  0.16700000  0.92170000  0.74650000  1.0
  C  C101  1  0.67000000  0.59310000  0.59930000  1.0
  C  C102  1  0.34800000  0.22170000  0.00250000  1.0
  C  C103  1  0.49000000  0.28070000  0.92970000  1.0
  C  C104  1  0.45100000  0.79890000  0.56370000  1.0
  C  C105  1  0.60200000  0.94660000  0.57410000  1.0
  N  N106  1  0.58300000  0.82290000  0.12280000  1.0
  N  N107  1  0.66600000  0.85640000  0.07360000  1.0
  N  N108  1  0.55900000  0.68610000  0.98950000  1.0
  N  N109  1  0.71800000  0.78340000  0.93490000  1.0
  N  N110  1  0.42900000  0.64810000  0.08960000  1.0
  N  N111  1  0.47800000  0.24570000  0.50300000  1.0
  N  N112  1  0.38800000  0.14640000  0.49110000  1.0
  N  N113  1  0.50000000  0.08180000  0.38550000  1.0
  N  N114  1  0.65100000  0.26050000  0.42300000  1.0
  N  N115  1  0.32800000  0.94640000  0.40300000  1.0
  N  N116  1  0.41700000  0.17710000  0.87720000  1.0
  N  N117  1  0.33400000  0.14360000  0.92640000  1.0
  N  N118  1  0.44100000  0.31390000  0.01050000  1.0
  N  N119  1  0.28200000  0.21660000  0.06510000  1.0
  N  N120  1  0.57100000  0.35190000  0.91040000  1.0
  N  N121  1  0.52200000  0.75430000  0.49700000  1.0
  N  N122  1  0.61200000  0.85360000  0.50890000  1.0
  N  N123  1  0.50000000  0.91820000  0.61450000  1.0
  N  N124  1  0.34900000  0.73950000  0.57700000  1.0
  N  N125  1  0.67200000  0.05360000  0.59700000  1.0
  O  O126  1  0.67800000  0.53200000  0.82520000  1.0
  O  O127  1  0.57900000  0.38540000  0.70580000  1.0
  O  O128  1  0.28100000  0.52470000  0.66010000  1.0
  O  O129  1  0.22700000  0.32390000  0.59560000  1.0
  O  O130  1  0.28300000  0.50190000  0.93260000  1.0
  O  O131  1  0.30100000  0.38670000  0.80170000  1.0
  O  O132  1  0.65880000  0.11320000  0.77970000  1.0
  O  O133  1  0.74400000  0.07750000  0.90140000  1.0
  O  O134  1  0.77100000  0.06160000  0.29910000  1.0
  O  O135  1  0.83600000  0.04300000  0.17020000  1.0
  O  O136  1  0.41400000  0.39530000  0.35320000  1.0
  O  O137  1  0.34180000  0.48150000  0.47300000  1.0
  O  O138  1  0.32200000  0.46800000  0.17480000  1.0
  O  O139  1  0.42100000  0.61460000  0.29420000  1.0
  O  O140  1  0.71900000  0.47530000  0.33990000  1.0
  O  O141  1  0.77300000  0.67610000  0.40440000  1.0
  O  O142  1  0.71700000  0.49810000  0.06740000  1.0
  O  O143  1  0.69900000  0.61330000  0.19830000  1.0
  O  O144  1  0.34120000  0.88680000  0.22030000  1.0
  O  O145  1  0.25600000  0.92250000  0.09860000  1.0
  O  O146  1  0.22900000  0.93840000  0.70090000  1.0
  O  O147  1  0.16400000  0.95700000  0.82980000  1.0
  O  O148  1  0.58600000  0.60470000  0.64680000  1.0
  O  O149  1  0.65820000  0.51850000  0.52700000  1.0
