# generated using pymatgen
data_MnH2(CO2)2
_symmetry_space_group_name_H-M   'P 1'
_cell_length_a   10.19790000
_cell_length_b   11.78430000
_cell_length_c   14.91990000
_cell_angle_alpha   91.80030000
_cell_angle_beta   90.00000000
_cell_angle_gamma   90.00000000
_symmetry_Int_Tables_number   1
_chemical_formula_structural   MnH2(CO2)2
_chemical_formula_sum   'Mn12 H24 C24 O48'
_cell_volume   1792.11563549
_cell_formula_units_Z   12
loop_
 _symmetry_equiv_pos_site_id
 _symmetry_equiv_pos_as_xyz
  1  'x, y, z'
loop_
 _atom_site_type_symbol
 _atom_site_label
 _atom_site_symmetry_multiplicity
 _atom_site_fract_x
 _atom_site_fract_y
 _atom_site_fract_z
 _atom_site_occupancy
  Mn  Mn0  1  0.93295000  0.98981000  0.56268000  1.0
  Mn  Mn1  1  0.62082000  0.99027000  0.61891000  1.0
  Mn  Mn2  1  0.54158000  0.74474000  0.74780000  1.0
  Mn  Mn3  1  0.45685000  0.50345000  0.88127000  1.0
  Mn  Mn4  1  0.14360000  0.51266000  0.93548000  1.0
  Mn  Mn5  1  0.53958000  0.24499000  0.75237000  1.0
  Mn  Mn6  1  0.43295000  0.01019000  0.43732000  1.0
  Mn  Mn7  1  0.12082000  0.00973000  0.38109000  1.0
  Mn  Mn8  1  0.04158000  0.25526000  0.25220000  1.0
  Mn  Mn9  1  0.95685000  0.49655000  0.11873000  1.0
  Mn  Mn10  1  0.64360000  0.48734000  0.06452000  1.0
  Mn  Mn11  1  0.03958000  0.75501000  0.24763000  1.0
  H  H12  1  0.78300000  0.90280000  0.38040000  1.0
  H  H13  1  0.91830000  0.18110000  0.71100000  1.0
  H  H14  1  0.99380000  0.73400000  0.50770000  1.0
  H  H15  1  0.83600000  0.74540000  0.72170000  1.0
  H  H16  1  0.39240000  0.04690000  0.82670000  1.0
  H  H17  1  0.83050000  0.21380000  0.47190000  1.0
  H  H18  1  0.25470000  0.75070000  0.77470000  1.0
  H  H19  1  0.69580000  0.44190000  0.67840000  1.0
  H  H20  1  0.74830000  0.70360000  0.96860000  1.0
  H  H21  1  0.29320000  0.60310000  0.11440000  1.0
  H  H22  1  0.16490000  0.30690000  0.78910000  1.0
  H  H23  1  0.56600000  0.22930000  0.01430000  1.0
  H  H24  1  0.28300000  0.09720000  0.61960000  1.0
  H  H25  1  0.41830000  0.81890000  0.28900000  1.0
  H  H26  1  0.49380000  0.26600000  0.49230000  1.0
  H  H27  1  0.33600000  0.25460000  0.27830000  1.0
  H  H28  1  0.89240000  0.95310000  0.17330000  1.0
  H  H29  1  0.33050000  0.78620000  0.52810000  1.0
  H  H30  1  0.75470000  0.24930000  0.22530000  1.0
  H  H31  1  0.19580000  0.55810000  0.32160000  1.0
  H  H32  1  0.24830000  0.29640000  0.03140000  1.0
  H  H33  1  0.79320000  0.39690000  0.88560000  1.0
  H  H34  1  0.66490000  0.69310000  0.21090000  1.0
  H  H35  1  0.06600000  0.77070000  0.98570000  1.0
  C  C36  1  0.71450000  0.92790000  0.41710000  1.0
  C  C37  1  0.82940000  0.16670000  0.70290000  1.0
  C  C38  1  0.01920000  0.77280000  0.45720000  1.0
  C  C39  1  0.81910000  0.80860000  0.68780000  1.0
  C  C40  1  0.44620000  0.00510000  0.78760000  1.0
  C  C41  1  0.89900000  0.19360000  0.43350000  1.0
  C  C42  1  0.26800000  0.68690000  0.80870000  1.0
  C  C43  1  0.63980000  0.48560000  0.71460000  1.0
  C  C44  1  0.68200000  0.68380000  0.92840000  1.0
  C  C45  1  0.36170000  0.57450000  0.07930000  1.0
  C  C46  1  0.25310000  0.32330000  0.79870000  1.0
  C  C47  1  0.55020000  0.26740000  0.96170000  1.0
  C  C48  1  0.21450000  0.07210000  0.58290000  1.0
  C  C49  1  0.32940000  0.83330000  0.29710000  1.0
  C  C50  1  0.51920000  0.22720000  0.54280000  1.0
  C  C51  1  0.31910000  0.19140000  0.31220000  1.0
  C  C52  1  0.94620000  0.99490000  0.21240000  1.0
  C  C53  1  0.39900000  0.80640000  0.56650000  1.0
  C  C54  1  0.76800000  0.31310000  0.19130000  1.0
  C  C55  1  0.13980000  0.51440000  0.28540000  1.0
  C  C56  1  0.18200000  0.31620000  0.07160000  1.0
  C  C57  1  0.86170000  0.42550000  0.92070000  1.0
  C  C58  1  0.75310000  0.67670000  0.20130000  1.0
  C  C59  1  0.05020000  0.73260000  0.03830000  1.0
  O  O60  1  0.74230000  0.94620000  0.50000000  1.0
  O  O61  1  0.60940000  0.93960000  0.38120000  1.0
  O  O62  1  0.79720000  0.09250000  0.64480000  1.0
  O  O63  1  0.74860000  0.22320000  0.75120000  1.0
  O  O64  1  0.03190000  0.88040000  0.46510000  1.0
  O  O65  1  0.03850000  0.71640000  0.38670000  1.0
  O  O66  1  0.91300000  0.85290000  0.65130000  1.0
  O  O67  1  0.69880000  0.84220000  0.68330000  1.0
  O  O68  1  0.51460000  0.05920000  0.73170000  1.0
  O  O69  1  0.44660000  0.89870000  0.79350000  1.0
  O  O70  1  0.95860000  0.10150000  0.44740000  1.0
  O  O71  1  0.92590000  0.25980000  0.37160000  1.0
  O  O72  1  0.38290000  0.64960000  0.81210000  1.0
  O  O73  1  0.16950000  0.64730000  0.84630000  1.0
  O  O74  1  0.63890000  0.58720000  0.70280000  1.0
  O  O75  1  0.57120000  0.43250000  0.77220000  1.0
  O  O76  1  0.66590000  0.74730000  0.86560000  1.0
  O  O77  1  0.61840000  0.59430000  0.94450000  1.0
  O  O78  1  0.33870000  0.55400000  0.99700000  1.0
  O  O79  1  0.47140000  0.55910000  0.11770000  1.0
  O  O80  1  0.27770000  0.40480000  0.85720000  1.0
  O  O81  1  0.32870000  0.26730000  0.75600000  1.0
  O  O82  1  0.54160000  0.37580000  0.96890000  1.0
  O  O83  1  0.53990000  0.20870000  0.89310000  1.0
  O  O84  1  0.24230000  0.05380000  0.50000000  1.0
  O  O85  1  0.10940000  0.06040000  0.61880000  1.0
  O  O86  1  0.29720000  0.90750000  0.35520000  1.0
  O  O87  1  0.24860000  0.77680000  0.24880000  1.0
  O  O88  1  0.53190000  0.11960000  0.53490000  1.0
  O  O89  1  0.53850000  0.28360000  0.61330000  1.0
  O  O90  1  0.41300000  0.14710000  0.34870000  1.0
  O  O91  1  0.19880000  0.15780000  0.31670000  1.0
  O  O92  1  0.01460000  0.94080000  0.26830000  1.0
  O  O93  1  0.94660000  0.10130000  0.20650000  1.0
  O  O94  1  0.45860000  0.89850000  0.55260000  1.0
  O  O95  1  0.42590000  0.74020000  0.62840000  1.0
  O  O96  1  0.88290000  0.35040000  0.18790000  1.0
  O  O97  1  0.66950000  0.35270000  0.15370000  1.0
  O  O98  1  0.13890000  0.41280000  0.29720000  1.0
  O  O99  1  0.07120000  0.56750000  0.22780000  1.0
  O  O100  1  0.16590000  0.25270000  0.13440000  1.0
  O  O101  1  0.11840000  0.40570000  0.05550000  1.0
  O  O102  1  0.83870000  0.44600000  0.00300000  1.0
  O  O103  1  0.97140000  0.44090000  0.88230000  1.0
  O  O104  1  0.77770000  0.59520000  0.14280000  1.0
  O  O105  1  0.82870000  0.73270000  0.24400000  1.0
  O  O106  1  0.04160000  0.62420000  0.03110000  1.0
  O  O107  1  0.03990000  0.79130000  0.10690000  1.0
