# generated using pymatgen
data_Mn5H14C28(N2O11)2
_symmetry_space_group_name_H-M   'P 1'
_cell_length_a   11.14000000
_cell_length_b   11.24900000
_cell_length_c   16.81500000
_cell_angle_alpha   98.14100000
_cell_angle_beta   108.84200000
_cell_angle_gamma   91.33300000
_symmetry_Int_Tables_number   1
_chemical_formula_structural   Mn5H14C28(N2O11)2
_chemical_formula_sum   'Mn10 H28 C56 N8 O44'
_cell_volume   1968.77842033
_cell_formula_units_Z   2
loop_
 _symmetry_equiv_pos_site_id
 _symmetry_equiv_pos_as_xyz
  1  'x, y, z'
loop_
 _atom_site_type_symbol
 _atom_site_label
 _atom_site_symmetry_multiplicity
 _atom_site_fract_x
 _atom_site_fract_y
 _atom_site_fract_z
 _atom_site_occupancy
  Mn  Mn0  1  0.58206000  0.72938000  0.96245000  1.0
  Mn  Mn1  1  0.67274000  0.30154000  0.45803000  1.0
  Mn  Mn2  1  0.74618000  0.58399000  0.45650000  1.0
  Mn  Mn3  1  0.68038000  0.36585000  0.25045000  1.0
  Mn  Mn4  1  0.29226000  0.78996000  0.95156000  1.0
  Mn  Mn5  1  0.41794000  0.27062000  0.03755000  1.0
  Mn  Mn6  1  0.32726000  0.69846000  0.54197000  1.0
  Mn  Mn7  1  0.25382000  0.41601000  0.54350000  1.0
  Mn  Mn8  1  0.31962000  0.63415000  0.74955000  1.0
  Mn  Mn9  1  0.70774000  0.21004000  0.04844000  1.0
  H  H10  1  0.87450000  0.99870000  0.14580000  1.0
  H  H11  1  0.92400000  0.02420000  0.29020000  1.0
  H  H12  1  0.87440000  0.86790000  0.35460000  1.0
  H  H13  1  0.56290000  0.90450000  0.36110000  1.0
  H  H14  1  0.50050000  0.71180000  0.28720000  1.0
  H  H15  1  0.46830000  0.67570000  0.14100000  1.0
  H  H16  1  0.86760000  0.53350000  0.86540000  1.0
  H  H17  1  0.00240000  0.47350000  0.79180000  1.0
  H  H18  1  0.92850000  0.44090000  0.64390000  1.0
  H  H19  1  0.60360000  0.83960000  0.62750000  1.0
  H  H20  1  0.69170000  0.88450000  0.77620000  1.0
  H  H21  1  0.87640000  0.79940000  0.83180000  1.0
  H  H22  1  0.83410000  0.39460000  0.40610000  1.0
  H  H23  1  0.37700000  0.59780000  0.90720000  1.0
  H  H24  1  0.12550000  0.00130000  0.85420000  1.0
  H  H25  1  0.07600000  0.97580000  0.70980000  1.0
  H  H26  1  0.12560000  0.13210000  0.64540000  1.0
  H  H27  1  0.43710000  0.09550000  0.63890000  1.0
  H  H28  1  0.49950000  0.28820000  0.71280000  1.0
  H  H29  1  0.53170000  0.32430000  0.85900000  1.0
  H  H30  1  0.13240000  0.46650000  0.13460000  1.0
  H  H31  1  0.99760000  0.52650000  0.20820000  1.0
  H  H32  1  0.07150000  0.55910000  0.35610000  1.0
  H  H33  1  0.39640000  0.16040000  0.37250000  1.0
  H  H34  1  0.30830000  0.11550000  0.22380000  1.0
  H  H35  1  0.12360000  0.20060000  0.16820000  1.0
  H  H36  1  0.16590000  0.60540000  0.59390000  1.0
  H  H37  1  0.62300000  0.40220000  0.09280000  1.0
  C  C38  1  0.85970000  0.93540000  0.17240000  1.0
  C  C39  1  0.88750000  0.95060000  0.25740000  1.0
  C  C40  1  0.86160000  0.85600000  0.29650000  1.0
  C  C41  1  0.81690000  0.74520000  0.24790000  1.0
  C  C42  1  0.78010000  0.64470000  0.28800000  1.0
  C  C43  1  0.79130000  0.72850000  0.16130000  1.0
  C  C44  1  0.74660000  0.61390000  0.09680000  1.0
  C  C45  1  0.53890000  0.95960000  0.17290000  1.0
  C  C46  1  0.54070000  0.05310000  0.11800000  1.0
  C  C47  1  0.60050000  0.11010000  0.30540000  1.0
  C  C48  1  0.55940000  0.98500000  0.25890000  1.0
  C  C49  1  0.54690000  0.88950000  0.30260000  1.0
  C  C50  1  0.51120000  0.77450000  0.25900000  1.0
  C  C51  1  0.49120000  0.75310000  0.17150000  1.0
  C  C52  1  0.53220000  0.52370000  0.61880000  1.0
  C  C53  1  0.66730000  0.51130000  0.67390000  1.0
  C  C54  1  0.62020000  0.58400000  0.80730000  1.0
  C  C55  1  0.71020000  0.53540000  0.76280000  1.0
  C  C56  1  0.83750000  0.51980000  0.80630000  1.0
  C  C57  1  0.91810000  0.48460000  0.76240000  1.0
  C  C58  1  0.87460000  0.46540000  0.67430000  1.0
  C  C59  1  0.68720000  0.82480000  0.65590000  1.0
  C  C60  1  0.73540000  0.84640000  0.74240000  1.0
  C  C61  1  0.85240000  0.80750000  0.77460000  1.0
  C  C62  1  0.93780000  0.77920000  0.73770000  1.0
  C  C63  1  0.07120000  0.74900000  0.78180000  1.0
  C  C64  1  0.88830000  0.76070000  0.64910000  1.0
  C  C65  1  0.95860000  0.72650000  0.58790000  1.0
  C  C66  1  0.14030000  0.06460000  0.82760000  1.0
  C  C67  1  0.11250000  0.04940000  0.74260000  1.0
  C  C68  1  0.13840000  0.14400000  0.70350000  1.0
  C  C69  1  0.18310000  0.25480000  0.75210000  1.0
  C  C70  1  0.21990000  0.35530000  0.71200000  1.0
  C  C71  1  0.20870000  0.27150000  0.83870000  1.0
  C  C72  1  0.25340000  0.38610000  0.90320000  1.0
  C  C73  1  0.46110000  0.04040000  0.82710000  1.0
  C  C74  1  0.45930000  0.94690000  0.88200000  1.0
  C  C75  1  0.39950000  0.88990000  0.69460000  1.0
  C  C76  1  0.44060000  0.01500000  0.74110000  1.0
  C  C77  1  0.45310000  0.11050000  0.69740000  1.0
  C  C78  1  0.48880000  0.22550000  0.74100000  1.0
  C  C79  1  0.50880000  0.24690000  0.82850000  1.0
  C  C80  1  0.46780000  0.47630000  0.38120000  1.0
  C  C81  1  0.33270000  0.48870000  0.32610000  1.0
  C  C82  1  0.37980000  0.41600000  0.19270000  1.0
  C  C83  1  0.28980000  0.46460000  0.23720000  1.0
  C  C84  1  0.16250000  0.48020000  0.19370000  1.0
  C  C85  1  0.08190000  0.51540000  0.23760000  1.0
  C  C86  1  0.12540000  0.53460000  0.32570000  1.0
  C  C87  1  0.31280000  0.17520000  0.34410000  1.0
  C  C88  1  0.26460000  0.15360000  0.25760000  1.0
  C  C89  1  0.14760000  0.19250000  0.22540000  1.0
  C  C90  1  0.06220000  0.22080000  0.26230000  1.0
  C  C91  1  0.92880000  0.25100000  0.21820000  1.0
  C  C92  1  0.11170000  0.23930000  0.35090000  1.0
  C  C93  1  0.04140000  0.27350000  0.41210000  1.0
  N  N94  1  0.80940000  0.82550000  0.12568000  1.0
  N  N95  1  0.50540000  0.84510000  0.13240000  1.0
  N  N96  1  0.75110000  0.48310000  0.63340000  1.0
  N  N97  1  0.76510000  0.78030000  0.61140000  1.0
  N  N98  1  0.19060000  0.17450000  0.87432000  1.0
  N  N99  1  0.49460000  0.15490000  0.86760000  1.0
  N  N100  1  0.24890000  0.51690000  0.36660000  1.0
  N  N101  1  0.23490000  0.21970000  0.38860000  1.0
  O  O102  1  0.77830000  0.81300000  0.04107000  1.0
  O  O103  1  0.63020000  0.59920000  0.05513000  1.0
  O  O104  1  0.83060000  0.54750000  0.08979000  1.0
  O  O105  1  0.74800000  0.54510000  0.24240000  1.0
  O  O106  1  0.78800000  0.67280000  0.36426000  1.0
  O  O107  1  0.48170000  0.82430000  0.04890000  1.0
  O  O108  1  0.63810000  0.06930000  0.10080000  1.0
  O  O109  1  0.44090000  0.10680000  0.09264000  1.0
  O  O110  1  0.61850000  0.18750000  0.26402000  1.0
  O  O111  1  0.61350000  0.12970000  0.38237000  1.0
  O  O112  1  0.70940000  0.47040000  0.54754000  1.0
  O  O113  1  0.46120000  0.42770000  0.59629000  1.0
  O  O114  1  0.50540000  0.62630000  0.60114000  1.0
  O  O115  1  0.50460000  0.56970000  0.76473000  1.0
  O  O116  1  0.67180000  0.63750000  0.88243000  1.0
  O  O117  1  0.71750000  0.76190000  0.52573000  1.0
  O  O118  1  0.11240000  0.78410000  0.86035000  1.0
  O  O119  1  0.12840000  0.69180000  0.73774000  1.0
  O  O120  1  0.02580000  0.81300000  0.58040000  1.0
  O  O121  1  0.94080000  0.62140000  0.54858000  1.0
  O  O122  1  0.75590000  0.40820000  0.39155000  1.0
  O  O123  1  0.38860000  0.66510000  0.89230000  1.0
  O  O124  1  0.22170000  0.18700000  0.95893000  1.0
  O  O125  1  0.36980000  0.40080000  0.94487000  1.0
  O  O126  1  0.16940000  0.45250000  0.91021000  1.0
  O  O127  1  0.25200000  0.45490000  0.75760000  1.0
  O  O128  1  0.21200000  0.32720000  0.63574000  1.0
  O  O129  1  0.51830000  0.17570000  0.95110000  1.0
  O  O130  1  0.36190000  0.93070000  0.89920000  1.0
  O  O131  1  0.55910000  0.89320000  0.90736000  1.0
  O  O132  1  0.38150000  0.81250000  0.73598000  1.0
  O  O133  1  0.38650000  0.87030000  0.61763000  1.0
  O  O134  1  0.29060000  0.52960000  0.45246000  1.0
  O  O135  1  0.53880000  0.57230000  0.40371000  1.0
  O  O136  1  0.49460000  0.37370000  0.39886000  1.0
  O  O137  1  0.49540000  0.43030000  0.23527000  1.0
  O  O138  1  0.32820000  0.36250000  0.11757000  1.0
  O  O139  1  0.28250000  0.23810000  0.47427000  1.0
  O  O140  1  0.88760000  0.21590000  0.13965000  1.0
  O  O141  1  0.87160000  0.30820000  0.26226000  1.0
  O  O142  1  0.97420000  0.18700000  0.41960000  1.0
  O  O143  1  0.05920000  0.37860000  0.45142000  1.0
  O  O144  1  0.24410000  0.59180000  0.60845000  1.0
  O  O145  1  0.61140000  0.33490000  0.10770000  1.0
