# generated using pymatgen
data_TbH15C24(NO)6
_symmetry_space_group_name_H-M   'P 1'
_cell_length_a   30.62100000
_cell_length_b   19.85560000
_cell_length_c   14.59200000
_cell_angle_alpha   90.00000000
_cell_angle_beta   102.38500000
_cell_angle_gamma   90.00000000
_symmetry_Int_Tables_number   1
_chemical_formula_structural   TbH15C24(NO)6
_chemical_formula_sum   'Tb8 H120 C192 N48 O48'
_cell_volume   8665.44857240
_cell_formula_units_Z   8
loop_
 _symmetry_equiv_pos_site_id
 _symmetry_equiv_pos_as_xyz
  1  'x, y, z'
loop_
 _atom_site_type_symbol
 _atom_site_label
 _atom_site_symmetry_multiplicity
 _atom_site_fract_x
 _atom_site_fract_y
 _atom_site_fract_z
 _atom_site_occupancy
  Tb  Tb0  1  0.76213000  0.24580000  0.67979000  1.0
  Tb  Tb1  1  0.73366000  0.26186000  0.91297000  1.0
  Tb  Tb2  1  0.23787000  0.74580000  0.82021000  1.0
  Tb  Tb3  1  0.26634000  0.76186000  0.58703000  1.0
  Tb  Tb4  1  0.23787000  0.75420000  0.32021000  1.0
  Tb  Tb5  1  0.26634000  0.73814000  0.08703000  1.0
  Tb  Tb6  1  0.76213000  0.25420000  0.17979000  1.0
  Tb  Tb7  1  0.73366000  0.23814000  0.41297000  1.0
  H  H8  1  0.13440000  0.90440000  0.84010000  1.0
  H  H9  1  0.08930000  0.99480000  0.85800000  1.0
  H  H10  1  0.14260000  0.99230000  0.13900000  1.0
  H  H11  1  0.19600000  0.91720000  0.10550000  1.0
  H  H12  1  0.96650000  0.13780000  0.95560000  1.0
  H  H13  1  0.90990000  0.18220000  0.83070000  1.0
  H  H14  1  0.85300000  0.27540000  0.02060000  1.0
  H  H15  1  0.91360000  0.25230000  0.12640000  1.0
  H  H16  1  0.15380000  0.87150000  0.33080000  1.0
  H  H17  1  0.10040000  0.94810000  0.27230000  1.0
  H  H18  1  0.16660000  0.07970000  0.47320000  1.0
  H  H19  1  0.21300000  0.99520000  0.53750000  1.0
  H  H20  1  0.34610000  0.87720000  0.16860000  1.0
  H  H21  1  0.39740000  0.95790000  0.17900000  1.0
  H  H22  1  0.32010000  0.08140000  0.29620000  1.0
  H  H23  1  0.27160000  0.99970000  0.29530000  1.0
  H  H24  1  0.57700000  0.28110000  0.21270000  1.0
  H  H25  1  0.63690000  0.29750000  0.15730000  1.0
  H  H26  1  0.59760000  0.16420000  0.94850000  1.0
  H  H27  1  0.53240000  0.14910000  0.00130000  1.0
  H  H28  1  0.43350000  0.98280000  0.79070000  1.0
  H  H29  1  0.38950000  0.90020000  0.71600000  1.0
  H  H30  1  0.31180000  0.91340000  0.90260000  1.0
  H  H31  1  0.35890000  0.99180000  0.98350000  1.0
  H  H32  1  0.05300000  0.04680000  0.95920000  1.0
  H  H33  1  0.97410000  0.18940000  0.19160000  1.0
  H  H34  1  0.08930000  0.10240000  0.37590000  1.0
  H  H35  1  0.39190000  0.11740000  0.26830000  1.0
  H  H36  1  0.45420000  0.04900000  0.91240000  1.0
  H  H37  1  0.50420000  0.22980000  0.19150000  1.0
  H  H38  1  0.86560000  0.40440000  0.65990000  1.0
  H  H39  1  0.91070000  0.49480000  0.64200000  1.0
  H  H40  1  0.85740000  0.49230000  0.36100000  1.0
  H  H41  1  0.80400000  0.41720000  0.39450000  1.0
  H  H42  1  0.03350000  0.63780000  0.54440000  1.0
  H  H43  1  0.09010000  0.68220000  0.66930000  1.0
  H  H44  1  0.14700000  0.77540000  0.47940000  1.0
  H  H45  1  0.08640000  0.75230000  0.37360000  1.0
  H  H46  1  0.84620000  0.37150000  0.16920000  1.0
  H  H47  1  0.89960000  0.44810000  0.22770000  1.0
  H  H48  1  0.83340000  0.57970000  0.02680000  1.0
  H  H49  1  0.78700000  0.49520000  0.96250000  1.0
  H  H50  1  0.65390000  0.37720000  0.33140000  1.0
  H  H51  1  0.60260000  0.45790000  0.32100000  1.0
  H  H52  1  0.67990000  0.58140000  0.20380000  1.0
  H  H53  1  0.72840000  0.49970000  0.20470000  1.0
  H  H54  1  0.42300000  0.78110000  0.28730000  1.0
  H  H55  1  0.36310000  0.79750000  0.34270000  1.0
  H  H56  1  0.40240000  0.66420000  0.55150000  1.0
  H  H57  1  0.46760000  0.64910000  0.49870000  1.0
  H  H58  1  0.56650000  0.48280000  0.70930000  1.0
  H  H59  1  0.61050000  0.40020000  0.78400000  1.0
  H  H60  1  0.68820000  0.41340000  0.59740000  1.0
  H  H61  1  0.64110000  0.49180000  0.51650000  1.0
  H  H62  1  0.94700000  0.54680000  0.54080000  1.0
  H  H63  1  0.02590000  0.68940000  0.30840000  1.0
  H  H64  1  0.91070000  0.60240000  0.12410000  1.0
  H  H65  1  0.60810000  0.61740000  0.23170000  1.0
  H  H66  1  0.54580000  0.54900000  0.58760000  1.0
  H  H67  1  0.49580000  0.72980000  0.30850000  1.0
  H  H68  1  0.86560000  0.09560000  0.15990000  1.0
  H  H69  1  0.91070000  0.00520000  0.14200000  1.0
  H  H70  1  0.85740000  0.00770000  0.86100000  1.0
  H  H71  1  0.80400000  0.08280000  0.89450000  1.0
  H  H72  1  0.03350000  0.86220000  0.04440000  1.0
  H  H73  1  0.09010000  0.81780000  0.16930000  1.0
  H  H74  1  0.14700000  0.72460000  0.97940000  1.0
  H  H75  1  0.08640000  0.74770000  0.87360000  1.0
  H  H76  1  0.84620000  0.12850000  0.66920000  1.0
  H  H77  1  0.89960000  0.05190000  0.72770000  1.0
  H  H78  1  0.83340000  0.92030000  0.52680000  1.0
  H  H79  1  0.78700000  0.00480000  0.46250000  1.0
  H  H80  1  0.65390000  0.12280000  0.83140000  1.0
  H  H81  1  0.60260000  0.04210000  0.82100000  1.0
  H  H82  1  0.67990000  0.91860000  0.70380000  1.0
  H  H83  1  0.72840000  0.00030000  0.70470000  1.0
  H  H84  1  0.42300000  0.71890000  0.78730000  1.0
  H  H85  1  0.36310000  0.70250000  0.84270000  1.0
  H  H86  1  0.40240000  0.83580000  0.05150000  1.0
  H  H87  1  0.46760000  0.85090000  0.99870000  1.0
  H  H88  1  0.56650000  0.01720000  0.20930000  1.0
  H  H89  1  0.61050000  0.09980000  0.28400000  1.0
  H  H90  1  0.68820000  0.08660000  0.09740000  1.0
  H  H91  1  0.64110000  0.00820000  0.01650000  1.0
  H  H92  1  0.94700000  0.95320000  0.04080000  1.0
  H  H93  1  0.02590000  0.81060000  0.80840000  1.0
  H  H94  1  0.91070000  0.89760000  0.62410000  1.0
  H  H95  1  0.60810000  0.88260000  0.73170000  1.0
  H  H96  1  0.54580000  0.95100000  0.08760000  1.0
  H  H97  1  0.49580000  0.77020000  0.80850000  1.0
  H  H98  1  0.13440000  0.59560000  0.34010000  1.0
  H  H99  1  0.08930000  0.50520000  0.35800000  1.0
  H  H100  1  0.14260000  0.50770000  0.63900000  1.0
  H  H101  1  0.19600000  0.58280000  0.60550000  1.0
  H  H102  1  0.96650000  0.36220000  0.45560000  1.0
  H  H103  1  0.90990000  0.31780000  0.33070000  1.0
  H  H104  1  0.85300000  0.22460000  0.52060000  1.0
  H  H105  1  0.91360000  0.24770000  0.62640000  1.0
  H  H106  1  0.15380000  0.62850000  0.83080000  1.0
  H  H107  1  0.10040000  0.55190000  0.77230000  1.0
  H  H108  1  0.16660000  0.42030000  0.97320000  1.0
  H  H109  1  0.21300000  0.50480000  0.03750000  1.0
  H  H110  1  0.34610000  0.62280000  0.66860000  1.0
  H  H111  1  0.39740000  0.54210000  0.67900000  1.0
  H  H112  1  0.32010000  0.41860000  0.79620000  1.0
  H  H113  1  0.27160000  0.50030000  0.79530000  1.0
  H  H114  1  0.57700000  0.21890000  0.71270000  1.0
  H  H115  1  0.63690000  0.20250000  0.65730000  1.0
  H  H116  1  0.59760000  0.33580000  0.44850000  1.0
  H  H117  1  0.53240000  0.35090000  0.50130000  1.0
  H  H118  1  0.43350000  0.51720000  0.29070000  1.0
  H  H119  1  0.38950000  0.59980000  0.21600000  1.0
  H  H120  1  0.31180000  0.58660000  0.40260000  1.0
  H  H121  1  0.35890000  0.50820000  0.48350000  1.0
  H  H122  1  0.05300000  0.45320000  0.45920000  1.0
  H  H123  1  0.97410000  0.31060000  0.69160000  1.0
  H  H124  1  0.08930000  0.39760000  0.87590000  1.0
  H  H125  1  0.39190000  0.38260000  0.76830000  1.0
  H  H126  1  0.45420000  0.45100000  0.41240000  1.0
  H  H127  1  0.50420000  0.27020000  0.69150000  1.0
  C  C128  1  0.20690000  0.85530000  0.94970000  1.0
  C  C129  1  0.17260000  0.90590000  0.96720000  1.0
  C  C130  1  0.13810000  0.92540000  0.89830000  1.0
  C  C131  1  0.10790000  0.97520000  0.90980000  1.0
  C  C132  1  0.10620000  0.99590000  0.00450000  1.0
  C  C133  1  0.14070000  0.97640000  0.07830000  1.0
  C  C134  1  0.17300000  0.93110000  0.05670000  1.0
  C  C135  1  0.06180000  0.06560000  0.08870000  1.0
  C  C136  1  0.07120000  0.08320000  0.24500000  1.0
  C  C137  1  0.01540000  0.13830000  0.14280000  1.0
  C  C138  1  0.94460000  0.18810000  0.05410000  1.0
  C  C139  1  0.94460000  0.16690000  0.96760000  1.0
  C  C140  1  0.90890000  0.19110000  0.89280000  1.0
  C  C141  1  0.87400000  0.22640000  0.91200000  1.0
  C  C142  1  0.87580000  0.24960000  0.00550000  1.0
  C  C143  1  0.91050000  0.23310000  0.06720000  1.0
  C  C144  1  0.83470000  0.23910000  0.83320000  1.0
  C  C145  1  0.21750000  0.86560000  0.48330000  1.0
  C  C146  1  0.18960000  0.92080000  0.43820000  1.0
  C  C147  1  0.15530000  0.91300000  0.36080000  1.0
  C  C148  1  0.12360000  0.95840000  0.32290000  1.0
  C  C149  1  0.12840000  0.02420000  0.36720000  1.0
  C  C150  1  0.16330000  0.03700000  0.44640000  1.0
  C  C151  1  0.19160000  0.98730000  0.48280000  1.0
  C  C152  1  0.27580000  0.86930000  0.25020000  1.0
  C  C153  1  0.30340000  0.92420000  0.24060000  1.0
  C  C154  1  0.34180000  0.91770000  0.19740000  1.0
  C  C155  1  0.37070000  0.96680000  0.19730000  1.0
  C  C156  1  0.36120000  0.03660000  0.22600000  1.0
  C  C157  1  0.32500000  0.04080000  0.26830000  1.0
  C  C158  1  0.29690000  0.99090000  0.27160000  1.0
  C  C159  1  0.41610000  0.10000000  0.16020000  1.0
  C  C160  1  0.47460000  0.15570000  0.12360000  1.0
  C  C161  1  0.54720000  0.20940000  0.11100000  1.0
  C  C162  1  0.58120000  0.25780000  0.16000000  1.0
  C  C163  1  0.61590000  0.26630000  0.12780000  1.0
  C  C164  1  0.62430000  0.23270000  0.05350000  1.0
  C  C165  1  0.59250000  0.18670000  0.00120000  1.0
  C  C166  1  0.55430000  0.17790000  0.03360000  1.0
  C  C167  1  0.66520000  0.24390000  0.01540000  1.0
  C  C168  1  0.43760000  0.07520000  0.02950000  1.0
  C  C169  1  0.40170000  0.99480000  0.90040000  1.0
  C  C170  1  0.40960000  0.96720000  0.81480000  1.0
  C  C171  1  0.38300000  0.91950000  0.76960000  1.0
  C  C172  1  0.34640000  0.89820000  0.80050000  1.0
  C  C173  1  0.33700000  0.92660000  0.88140000  1.0
  C  C174  1  0.36520000  0.97350000  0.92900000  1.0
  C  C175  1  0.31430000  0.84630000  0.74380000  1.0
  C  C176  1  0.79310000  0.35530000  0.55030000  1.0
  C  C177  1  0.82740000  0.40590000  0.53280000  1.0
  C  C178  1  0.86190000  0.42540000  0.60170000  1.0
  C  C179  1  0.89210000  0.47520000  0.59020000  1.0
  C  C180  1  0.89380000  0.49590000  0.49550000  1.0
  C  C181  1  0.85930000  0.47640000  0.42170000  1.0
  C  C182  1  0.82700000  0.43110000  0.44330000  1.0
  C  C183  1  0.93820000  0.56560000  0.41130000  1.0
  C  C184  1  0.92880000  0.58320000  0.25500000  1.0
  C  C185  1  0.98460000  0.63830000  0.35720000  1.0
  C  C186  1  0.05540000  0.68810000  0.44590000  1.0
  C  C187  1  0.05540000  0.66690000  0.53240000  1.0
  C  C188  1  0.09110000  0.69110000  0.60720000  1.0
  C  C189  1  0.12600000  0.72640000  0.58800000  1.0
  C  C190  1  0.12420000  0.74960000  0.49450000  1.0
  C  C191  1  0.08950000  0.73310000  0.43280000  1.0
  C  C192  1  0.16530000  0.73910000  0.66680000  1.0
  C  C193  1  0.78250000  0.36560000  0.01670000  1.0
  C  C194  1  0.81040000  0.42080000  0.06180000  1.0
  C  C195  1  0.84470000  0.41300000  0.13920000  1.0
  C  C196  1  0.87640000  0.45840000  0.17710000  1.0
  C  C197  1  0.87160000  0.52420000  0.13280000  1.0
  C  C198  1  0.83670000  0.53700000  0.05360000  1.0
  C  C199  1  0.80840000  0.48730000  0.01720000  1.0
  C  C200  1  0.72420000  0.36930000  0.24980000  1.0
  C  C201  1  0.69660000  0.42420000  0.25940000  1.0
  C  C202  1  0.65820000  0.41770000  0.30260000  1.0
  C  C203  1  0.62930000  0.46680000  0.30270000  1.0
  C  C204  1  0.63880000  0.53660000  0.27400000  1.0
  C  C205  1  0.67500000  0.54080000  0.23170000  1.0
  C  C206  1  0.70310000  0.49090000  0.22840000  1.0
  C  C207  1  0.58390000  0.60000000  0.33980000  1.0
  C  C208  1  0.52540000  0.65570000  0.37640000  1.0
  C  C209  1  0.45280000  0.70940000  0.38900000  1.0
  C  C210  1  0.41880000  0.75780000  0.34000000  1.0
  C  C211  1  0.38410000  0.76630000  0.37220000  1.0
  C  C212  1  0.37570000  0.73270000  0.44650000  1.0
  C  C213  1  0.40750000  0.68670000  0.49880000  1.0
  C  C214  1  0.44570000  0.67790000  0.46640000  1.0
  C  C215  1  0.33480000  0.74390000  0.48460000  1.0
  C  C216  1  0.56240000  0.57520000  0.47050000  1.0
  C  C217  1  0.59830000  0.49480000  0.59960000  1.0
  C  C218  1  0.59040000  0.46720000  0.68520000  1.0
  C  C219  1  0.61700000  0.41950000  0.73040000  1.0
  C  C220  1  0.65360000  0.39820000  0.69950000  1.0
  C  C221  1  0.66300000  0.42660000  0.61860000  1.0
  C  C222  1  0.63480000  0.47350000  0.57100000  1.0
  C  C223  1  0.68570000  0.34630000  0.75620000  1.0
  C  C224  1  0.79310000  0.14470000  0.05030000  1.0
  C  C225  1  0.82740000  0.09410000  0.03280000  1.0
  C  C226  1  0.86190000  0.07460000  0.10170000  1.0
  C  C227  1  0.89210000  0.02480000  0.09020000  1.0
  C  C228  1  0.89380000  0.00410000  0.99550000  1.0
  C  C229  1  0.85930000  0.02360000  0.92170000  1.0
  C  C230  1  0.82700000  0.06890000  0.94330000  1.0
  C  C231  1  0.93820000  0.93440000  0.91130000  1.0
  C  C232  1  0.92880000  0.91680000  0.75500000  1.0
  C  C233  1  0.98460000  0.86170000  0.85720000  1.0
  C  C234  1  0.05540000  0.81190000  0.94590000  1.0
  C  C235  1  0.05540000  0.83310000  0.03240000  1.0
  C  C236  1  0.09110000  0.80890000  0.10720000  1.0
  C  C237  1  0.12600000  0.77360000  0.08800000  1.0
  C  C238  1  0.12420000  0.75040000  0.99450000  1.0
  C  C239  1  0.08950000  0.76690000  0.93280000  1.0
  C  C240  1  0.16530000  0.76090000  0.16680000  1.0
  C  C241  1  0.78250000  0.13440000  0.51670000  1.0
  C  C242  1  0.81040000  0.07920000  0.56180000  1.0
  C  C243  1  0.84470000  0.08700000  0.63920000  1.0
  C  C244  1  0.87640000  0.04160000  0.67710000  1.0
  C  C245  1  0.87160000  0.97580000  0.63280000  1.0
  C  C246  1  0.83670000  0.96300000  0.55360000  1.0
  C  C247  1  0.80840000  0.01270000  0.51720000  1.0
  C  C248  1  0.72420000  0.13070000  0.74980000  1.0
  C  C249  1  0.69660000  0.07580000  0.75940000  1.0
  C  C250  1  0.65820000  0.08230000  0.80260000  1.0
  C  C251  1  0.62930000  0.03320000  0.80270000  1.0
  C  C252  1  0.63880000  0.96340000  0.77400000  1.0
  C  C253  1  0.67500000  0.95920000  0.73170000  1.0
  C  C254  1  0.70310000  0.00910000  0.72840000  1.0
  C  C255  1  0.58390000  0.90000000  0.83980000  1.0
  C  C256  1  0.52540000  0.84430000  0.87640000  1.0
  C  C257  1  0.45280000  0.79060000  0.88900000  1.0
  C  C258  1  0.41880000  0.74220000  0.84000000  1.0
  C  C259  1  0.38410000  0.73370000  0.87220000  1.0
  C  C260  1  0.37570000  0.76730000  0.94650000  1.0
  C  C261  1  0.40750000  0.81330000  0.99880000  1.0
  C  C262  1  0.44570000  0.82210000  0.96640000  1.0
  C  C263  1  0.33480000  0.75610000  0.98460000  1.0
  C  C264  1  0.56240000  0.92480000  0.97050000  1.0
  C  C265  1  0.59830000  0.00520000  0.09960000  1.0
  C  C266  1  0.59040000  0.03280000  0.18520000  1.0
  C  C267  1  0.61700000  0.08050000  0.23040000  1.0
  C  C268  1  0.65360000  0.10180000  0.19950000  1.0
  C  C269  1  0.66300000  0.07340000  0.11860000  1.0
  C  C270  1  0.63480000  0.02650000  0.07100000  1.0
  C  C271  1  0.68570000  0.15370000  0.25620000  1.0
  C  C272  1  0.20690000  0.64470000  0.44970000  1.0
  C  C273  1  0.17260000  0.59410000  0.46720000  1.0
  C  C274  1  0.13810000  0.57460000  0.39830000  1.0
  C  C275  1  0.10790000  0.52480000  0.40980000  1.0
  C  C276  1  0.10620000  0.50410000  0.50450000  1.0
  C  C277  1  0.14070000  0.52360000  0.57830000  1.0
  C  C278  1  0.17300000  0.56890000  0.55670000  1.0
  C  C279  1  0.06180000  0.43440000  0.58870000  1.0
  C  C280  1  0.07120000  0.41680000  0.74500000  1.0
  C  C281  1  0.01540000  0.36170000  0.64280000  1.0
  C  C282  1  0.94460000  0.31190000  0.55410000  1.0
  C  C283  1  0.94460000  0.33310000  0.46760000  1.0
  C  C284  1  0.90890000  0.30890000  0.39280000  1.0
  C  C285  1  0.87400000  0.27360000  0.41200000  1.0
  C  C286  1  0.87580000  0.25040000  0.50550000  1.0
  C  C287  1  0.91050000  0.26690000  0.56720000  1.0
  C  C288  1  0.83470000  0.26090000  0.33320000  1.0
  C  C289  1  0.21750000  0.63440000  0.98330000  1.0
  C  C290  1  0.18960000  0.57920000  0.93820000  1.0
  C  C291  1  0.15530000  0.58700000  0.86080000  1.0
  C  C292  1  0.12360000  0.54160000  0.82290000  1.0
  C  C293  1  0.12840000  0.47580000  0.86720000  1.0
  C  C294  1  0.16330000  0.46300000  0.94640000  1.0
  C  C295  1  0.19160000  0.51270000  0.98280000  1.0
  C  C296  1  0.27580000  0.63070000  0.75020000  1.0
  C  C297  1  0.30340000  0.57580000  0.74060000  1.0
  C  C298  1  0.34180000  0.58230000  0.69740000  1.0
  C  C299  1  0.37070000  0.53320000  0.69730000  1.0
  C  C300  1  0.36120000  0.46340000  0.72600000  1.0
  C  C301  1  0.32500000  0.45920000  0.76830000  1.0
  C  C302  1  0.29690000  0.50910000  0.77160000  1.0
  C  C303  1  0.41610000  0.40000000  0.66020000  1.0
  C  C304  1  0.47460000  0.34430000  0.62360000  1.0
  C  C305  1  0.54720000  0.29060000  0.61100000  1.0
  C  C306  1  0.58120000  0.24220000  0.66000000  1.0
  C  C307  1  0.61590000  0.23370000  0.62780000  1.0
  C  C308  1  0.62430000  0.26730000  0.55350000  1.0
  C  C309  1  0.59250000  0.31330000  0.50120000  1.0
  C  C310  1  0.55430000  0.32210000  0.53360000  1.0
  C  C311  1  0.66520000  0.25610000  0.51540000  1.0
  C  C312  1  0.43760000  0.42480000  0.52950000  1.0
  C  C313  1  0.40170000  0.50520000  0.40040000  1.0
  C  C314  1  0.40960000  0.53280000  0.31480000  1.0
  C  C315  1  0.38300000  0.58050000  0.26960000  1.0
  C  C316  1  0.34640000  0.60180000  0.30050000  1.0
  C  C317  1  0.33700000  0.57340000  0.38140000  1.0
  C  C318  1  0.36520000  0.52650000  0.42900000  1.0
  C  C319  1  0.31430000  0.65370000  0.24380000  1.0
  N  N320  1  0.07130000  0.03750000  0.01110000  1.0
  N  N321  1  0.08900000  0.05450000  0.17200000  1.0
  N  N322  1  0.03990000  0.12450000  0.23960000  1.0
  N  N323  1  0.02430000  0.10600000  0.06870000  1.0
  N  N324  1  0.97860000  0.17360000  0.13950000  1.0
  N  N325  1  0.09490000  0.07470000  0.33460000  1.0
  N  N326  1  0.38980000  0.08820000  0.22400000  1.0
  N  N327  1  0.45070000  0.14660000  0.19020000  1.0
  N  N328  1  0.46990000  0.12280000  0.03870000  1.0
  N  N329  1  0.40780000  0.06590000  0.08250000  1.0
  N  N330  1  0.43360000  0.04040000  0.94270000  1.0
  N  N331  1  0.50730000  0.20180000  0.14840000  1.0
  N  N332  1  0.92870000  0.53750000  0.48890000  1.0
  N  N333  1  0.91100000  0.55450000  0.32800000  1.0
  N  N334  1  0.96010000  0.62450000  0.26040000  1.0
  N  N335  1  0.97570000  0.60600000  0.43130000  1.0
  N  N336  1  0.02140000  0.67360000  0.36050000  1.0
  N  N337  1  0.90510000  0.57470000  0.16540000  1.0
  N  N338  1  0.61020000  0.58820000  0.27600000  1.0
  N  N339  1  0.54930000  0.64660000  0.30980000  1.0
  N  N340  1  0.53010000  0.62280000  0.46130000  1.0
  N  N341  1  0.59220000  0.56590000  0.41750000  1.0
  N  N342  1  0.56640000  0.54040000  0.55730000  1.0
  N  N343  1  0.49270000  0.70180000  0.35160000  1.0
  N  N344  1  0.92870000  0.96250000  0.98890000  1.0
  N  N345  1  0.91100000  0.94550000  0.82800000  1.0
  N  N346  1  0.96010000  0.87550000  0.76040000  1.0
  N  N347  1  0.97570000  0.89400000  0.93130000  1.0
  N  N348  1  0.02140000  0.82640000  0.86050000  1.0
  N  N349  1  0.90510000  0.92530000  0.66540000  1.0
  N  N350  1  0.61020000  0.91180000  0.77600000  1.0
  N  N351  1  0.54930000  0.85340000  0.80980000  1.0
  N  N352  1  0.53010000  0.87720000  0.96130000  1.0
  N  N353  1  0.59220000  0.93410000  0.91750000  1.0
  N  N354  1  0.56640000  0.95960000  0.05730000  1.0
  N  N355  1  0.49270000  0.79820000  0.85160000  1.0
  N  N356  1  0.07130000  0.46250000  0.51110000  1.0
  N  N357  1  0.08900000  0.44550000  0.67200000  1.0
  N  N358  1  0.03990000  0.37550000  0.73960000  1.0
  N  N359  1  0.02430000  0.39400000  0.56870000  1.0
  N  N360  1  0.97860000  0.32640000  0.63950000  1.0
  N  N361  1  0.09490000  0.42530000  0.83460000  1.0
  N  N362  1  0.38980000  0.41180000  0.72400000  1.0
  N  N363  1  0.45070000  0.35340000  0.69020000  1.0
  N  N364  1  0.46990000  0.37720000  0.53870000  1.0
  N  N365  1  0.40780000  0.43410000  0.58250000  1.0
  N  N366  1  0.43360000  0.45960000  0.44270000  1.0
  N  N367  1  0.50730000  0.29820000  0.64840000  1.0
  O  O368  1  0.23520000  0.83700000  0.01910000  1.0
  O  O369  1  0.80050000  0.26540000  0.85180000  1.0
  O  O370  1  0.28300000  0.81000000  0.22030000  1.0
  O  O371  1  0.32570000  0.82640000  0.66990000  1.0
  O  O372  1  0.66790000  0.20800000  0.93920000  1.0
  O  O373  1  0.24420000  0.87990000  0.56060000  1.0
  O  O374  1  0.21510000  0.80680000  0.44830000  1.0
  O  O375  1  0.20380000  0.83760000  0.86890000  1.0
  O  O376  1  0.69810000  0.27120000  0.05630000  1.0
  O  O377  1  0.24330000  0.87550000  0.29530000  1.0
  O  O378  1  0.28010000  0.82460000  0.77050000  1.0
  O  O379  1  0.83730000  0.22670000  0.75300000  1.0
  O  O380  1  0.76480000  0.33700000  0.48090000  1.0
  O  O381  1  0.19950000  0.76540000  0.64820000  1.0
  O  O382  1  0.71700000  0.31000000  0.27970000  1.0
  O  O383  1  0.67430000  0.32640000  0.83010000  1.0
  O  O384  1  0.33210000  0.70800000  0.56080000  1.0
  O  O385  1  0.75580000  0.37990000  0.93940000  1.0
  O  O386  1  0.78490000  0.30680000  0.05170000  1.0
  O  O387  1  0.79620000  0.33760000  0.63110000  1.0
  O  O388  1  0.30190000  0.77120000  0.44370000  1.0
  O  O389  1  0.75670000  0.37550000  0.20470000  1.0
  O  O390  1  0.71990000  0.32460000  0.72950000  1.0
  O  O391  1  0.16270000  0.72670000  0.74700000  1.0
  O  O392  1  0.76480000  0.16300000  0.98090000  1.0
  O  O393  1  0.19950000  0.73460000  0.14820000  1.0
  O  O394  1  0.71700000  0.19000000  0.77970000  1.0
  O  O395  1  0.67430000  0.17360000  0.33010000  1.0
  O  O396  1  0.33210000  0.79200000  0.06080000  1.0
  O  O397  1  0.75580000  0.12010000  0.43940000  1.0
  O  O398  1  0.78490000  0.19320000  0.55170000  1.0
  O  O399  1  0.79620000  0.16240000  0.13110000  1.0
  O  O400  1  0.30190000  0.72880000  0.94370000  1.0
  O  O401  1  0.75670000  0.12450000  0.70470000  1.0
  O  O402  1  0.71990000  0.17540000  0.22950000  1.0
  O  O403  1  0.16270000  0.77330000  0.24700000  1.0
  O  O404  1  0.23520000  0.66300000  0.51910000  1.0
  O  O405  1  0.80050000  0.23460000  0.35180000  1.0
  O  O406  1  0.28300000  0.69000000  0.72030000  1.0
  O  O407  1  0.32570000  0.67360000  0.16990000  1.0
  O  O408  1  0.66790000  0.29200000  0.43920000  1.0
  O  O409  1  0.24420000  0.62010000  0.06060000  1.0
  O  O410  1  0.21510000  0.69320000  0.94830000  1.0
  O  O411  1  0.20380000  0.66240000  0.36890000  1.0
  O  O412  1  0.69810000  0.22880000  0.55630000  1.0
  O  O413  1  0.24330000  0.62450000  0.79530000  1.0
  O  O414  1  0.28010000  0.67540000  0.27050000  1.0
  O  O415  1  0.83730000  0.27330000  0.25300000  1.0
