# generated using pymatgen
data_Nd2H24(C14O5)3
_symmetry_space_group_name_H-M   'P 1'
_cell_length_a   14.70800000
_cell_length_b   15.42900000
_cell_length_c   23.08400000
_cell_angle_alpha   84.28200000
_cell_angle_beta   82.61900000
_cell_angle_gamma   86.75600000
_symmetry_Int_Tables_number   1
_chemical_formula_structural   Nd2H24(C14O5)3
_chemical_formula_sum   'Nd8 H96 C168 O60'
_cell_volume   5164.09831183
_cell_formula_units_Z   4
loop_
 _symmetry_equiv_pos_site_id
 _symmetry_equiv_pos_as_xyz
  1  'x, y, z'
loop_
 _atom_site_type_symbol
 _atom_site_label
 _atom_site_symmetry_multiplicity
 _atom_site_fract_x
 _atom_site_fract_y
 _atom_site_fract_z
 _atom_site_occupancy
  Nd  Nd0  1  0.81455000  0.13019000  0.28154000  1.0
  Nd  Nd1  1  0.78876000  0.88006000  0.23844000  1.0
  Nd  Nd2  1  0.66772000  0.66493000  0.22696000  1.0
  Nd  Nd3  1  0.70391000  0.40303000  0.23495000  1.0
  Nd  Nd4  1  0.18545000  0.86981000  0.71846000  1.0
  Nd  Nd5  1  0.21124000  0.11994000  0.76156000  1.0
  Nd  Nd6  1  0.33228000  0.33507000  0.77304000  1.0
  Nd  Nd7  1  0.29609000  0.59697000  0.76505000  1.0
  H  H8  1  0.13980000  0.06440000  0.19790000  1.0
  H  H9  1  0.96800000  0.92550000  0.12770000  1.0
  H  H10  1  0.08880000  0.87420000  0.06480000  1.0
  H  H11  1  0.26070000  0.01380000  0.13470000  1.0
  H  H12  1  0.18140000  0.97660000  0.96880000  1.0
  H  H13  1  0.32390000  0.76480000  0.02690000  1.0
  H  H14  1  0.16790000  0.91430000  0.88410000  1.0
  H  H15  1  0.31030000  0.70320000  0.94180000  1.0
  H  H16  1  0.64550000  0.01820000  0.40640000  1.0
  H  H17  1  0.84640000  0.85370000  0.45670000  1.0
  H  H18  1  0.59440000  0.03700000  0.50350000  1.0
  H  H19  1  0.79870000  0.87740000  0.55400000  1.0
  H  H20  1  0.67460000  0.13670000  0.57600000  1.0
  H  H21  1  0.51400000  0.95080000  0.65490000  1.0
  H  H22  1  0.57130000  0.24310000  0.61140000  1.0
  H  H23  1  0.40810000  0.05710000  0.69010000  1.0
  H  H24  1  0.84540000  0.84380000  0.02040000  1.0
  H  H25  1  0.58450000  0.81670000  0.09200000  1.0
  H  H26  1  0.80470000  0.82510000  0.92950000  1.0
  H  H27  1  0.54240000  0.80330000  0.00000000  1.0
  H  H28  1  0.56350000  0.94770000  0.91750000  1.0
  H  H29  1  0.56220000  0.73180000  0.83400000  1.0
  H  H30  1  0.44010000  0.00540000  0.87200000  1.0
  H  H31  1  0.44220000  0.79180000  0.78650000  1.0
  H  H32  1  0.08590000  0.73980000  0.19230000  1.0
  H  H33  1  0.90050000  0.56980000  0.17630000  1.0
  H  H34  1  0.20130000  0.64530000  0.15410000  1.0
  H  H35  1  0.01700000  0.47760000  0.13530000  1.0
  H  H36  1  0.13910000  0.59440000  0.02940000  1.0
  H  H37  1  0.27870000  0.37500000  0.07520000  1.0
  H  H38  1  0.17240000  0.56940000  0.93200000  1.0
  H  H39  1  0.31460000  0.35300000  0.97780000  1.0
  H  H40  1  0.79640000  0.64250000  0.35650000  1.0
  H  H41  1  0.60950000  0.48010000  0.43920000  1.0
  H  H42  1  0.78860000  0.71660000  0.43870000  1.0
  H  H43  1  0.60160000  0.55440000  0.52230000  1.0
  H  H44  1  0.64080000  0.66900000  0.64560000  1.0
  H  H45  1  0.54990000  0.76060000  0.49590000  1.0
  H  H46  1  0.49960000  0.70120000  0.69600000  1.0
  H  H47  1  0.40820000  0.79860000  0.54660000  1.0
  H  H48  1  0.46230000  0.56750000  0.32950000  1.0
  H  H49  1  0.35740000  0.43200000  0.21760000  1.0
  H  H50  1  0.32070000  0.57760000  0.38450000  1.0
  H  H51  1  0.21380000  0.45160000  0.26710000  1.0
  H  H52  1  0.03450000  0.57910000  0.31890000  1.0
  H  H53  1  0.13890000  0.35820000  0.39290000  1.0
  H  H54  1  0.92180000  0.50240000  0.28730000  1.0
  H  H55  1  0.02510000  0.28140000  0.36470000  1.0
  H  H56  1  0.86020000  0.93560000  0.80210000  1.0
  H  H57  1  0.03200000  0.07450000  0.87230000  1.0
  H  H58  1  0.91120000  0.12580000  0.93520000  1.0
  H  H59  1  0.73930000  0.98620000  0.86530000  1.0
  H  H60  1  0.81860000  0.02340000  0.03120000  1.0
  H  H61  1  0.67610000  0.23520000  0.97310000  1.0
  H  H62  1  0.83210000  0.08570000  0.11590000  1.0
  H  H63  1  0.68970000  0.29680000  0.05820000  1.0
  H  H64  1  0.35450000  0.98180000  0.59360000  1.0
  H  H65  1  0.15360000  0.14630000  0.54330000  1.0
  H  H66  1  0.40560000  0.96300000  0.49650000  1.0
  H  H67  1  0.20130000  0.12260000  0.44600000  1.0
  H  H68  1  0.32540000  0.86330000  0.42400000  1.0
  H  H69  1  0.48600000  0.04920000  0.34510000  1.0
  H  H70  1  0.42870000  0.75690000  0.38860000  1.0
  H  H71  1  0.59190000  0.94290000  0.30990000  1.0
  H  H72  1  0.15460000  0.15620000  0.97960000  1.0
  H  H73  1  0.41550000  0.18330000  0.90800000  1.0
  H  H74  1  0.19530000  0.17490000  0.07050000  1.0
  H  H75  1  0.45760000  0.19670000  0.00000000  1.0
  H  H76  1  0.43650000  0.05230000  0.08250000  1.0
  H  H77  1  0.43780000  0.26820000  0.16600000  1.0
  H  H78  1  0.55990000  0.99460000  0.12800000  1.0
  H  H79  1  0.55780000  0.20820000  0.21350000  1.0
  H  H80  1  0.91410000  0.26020000  0.80770000  1.0
  H  H81  1  0.09950000  0.43020000  0.82370000  1.0
  H  H82  1  0.79870000  0.35470000  0.84590000  1.0
  H  H83  1  0.98300000  0.52240000  0.86470000  1.0
  H  H84  1  0.86090000  0.40560000  0.97060000  1.0
  H  H85  1  0.72130000  0.62500000  0.92480000  1.0
  H  H86  1  0.82760000  0.43060000  0.06800000  1.0
  H  H87  1  0.68540000  0.64700000  0.02220000  1.0
  H  H88  1  0.20360000  0.35750000  0.64350000  1.0
  H  H89  1  0.39050000  0.51990000  0.56080000  1.0
  H  H90  1  0.21140000  0.28340000  0.56130000  1.0
  H  H91  1  0.39840000  0.44560000  0.47770000  1.0
  H  H92  1  0.35920000  0.33100000  0.35440000  1.0
  H  H93  1  0.45010000  0.23940000  0.50410000  1.0
  H  H94  1  0.50040000  0.29880000  0.30400000  1.0
  H  H95  1  0.59180000  0.20140000  0.45340000  1.0
  H  H96  1  0.53770000  0.43250000  0.67050000  1.0
  H  H97  1  0.64260000  0.56800000  0.78240000  1.0
  H  H98  1  0.67930000  0.42240000  0.61550000  1.0
  H  H99  1  0.78620000  0.54840000  0.73290000  1.0
  H  H100  1  0.96550000  0.42090000  0.68110000  1.0
  H  H101  1  0.86110000  0.64180000  0.60710000  1.0
  H  H102  1  0.07820000  0.49760000  0.71270000  1.0
  H  H103  1  0.97490000  0.71860000  0.63530000  1.0
  C  C104  1  0.96440000  0.03630000  0.21000000  1.0
  C  C105  1  0.04050000  0.00050000  0.16990000  1.0
  C  C106  1  0.12910000  0.02620000  0.17110000  1.0
  C  C107  1  0.02680000  0.94350000  0.12940000  1.0
  C  C108  1  0.09900000  0.91300000  0.09140000  1.0
  C  C109  1  0.20170000  0.99620000  0.13310000  1.0
  C  C110  1  0.18640000  0.94000000  0.09280000  1.0
  C  C111  1  0.25210000  0.87540000  0.00600000  1.0
  C  C112  1  0.20670000  0.92100000  0.96340000  1.0
  C  C113  1  0.29190000  0.79460000  0.99830000  1.0
  C  C114  1  0.19900000  0.88370000  0.91290000  1.0
  C  C115  1  0.28350000  0.75830000  0.94720000  1.0
  C  C116  1  0.23700000  0.80070000  0.90410000  1.0
  C  C117  1  0.22580000  0.76050000  0.84890000  1.0
  C  C118  1  0.78240000  0.92160000  0.35930000  1.0
  C  C119  1  0.75210000  0.93450000  0.42210000  1.0
  C  C120  1  0.67610000  0.98940000  0.43610000  1.0
  C  C121  1  0.79660000  0.89190000  0.46590000  1.0
  C  C122  1  0.64610000  0.00130000  0.49400000  1.0
  C  C123  1  0.76770000  0.90520000  0.52420000  1.0
  C  C124  1  0.69220000  0.96060000  0.53710000  1.0
  C  C125  1  0.60290000  0.03450000  0.61280000  1.0
  C  C126  1  0.62070000  0.12090000  0.59930000  1.0
  C  C127  1  0.52540000  0.00960000  0.64610000  1.0
  C  C128  1  0.55880000  0.18460000  0.62030000  1.0
  C  C129  1  0.47800000  0.16110000  0.65440000  1.0
  C  C130  1  0.46200000  0.07380000  0.66710000  1.0
  C  C131  1  0.41160000  0.22810000  0.68110000  1.0
  C  C132  1  0.74790000  0.83520000  0.12490000  1.0
  C  C133  1  0.71940000  0.82950000  0.06560000  1.0
  C  C134  1  0.78470000  0.83410000  0.01650000  1.0
  C  C135  1  0.62870000  0.81870000  0.05930000  1.0
  C  C136  1  0.76050000  0.82460000  0.96220000  1.0
  C  C137  1  0.60330000  0.81080000  0.00460000  1.0
  C  C138  1  0.67040000  0.81440000  0.95680000  1.0
  C  C139  1  0.57450000  0.83440000  0.87930000  1.0
  C  C140  1  0.53870000  0.91650000  0.89120000  1.0
  C  C141  1  0.53820000  0.78750000  0.84090000  1.0
  C  C142  1  0.46580000  0.95100000  0.86340000  1.0
  C  C143  1  0.46670000  0.82330000  0.81270000  1.0
  C  C144  1  0.42990000  0.90690000  0.82300000  1.0
  C  C145  1  0.35190000  0.94360000  0.79200000  1.0
  C  C146  1  0.91080000  0.72510000  0.21660000  1.0
  C  C147  1  0.98220000  0.66350000  0.18870000  1.0
  C  C148  1  0.07120000  0.68640000  0.18140000  1.0
  C  C149  1  0.96120000  0.58600000  0.17160000  1.0
  C  C150  1  0.14020000  0.63050000  0.15770000  1.0
  C  C151  1  0.03090000  0.53080000  0.14690000  1.0
  C  C152  1  0.11840000  0.55510000  0.14000000  1.0
  C  C153  1  0.20450000  0.48640000  0.06120000  1.0
  C  C154  1  0.17380000  0.54480000  0.01900000  1.0
  C  C155  1  0.25720000  0.41450000  0.04640000  1.0
  C  C156  1  0.19430000  0.52990000  0.96070000  1.0
  C  C157  1  0.27790000  0.40160000  0.98800000  1.0
  C  C158  1  0.24670000  0.45730000  0.94440000  1.0
  C  C159  1  0.27080000  0.43770000  0.88210000  1.0
  C  C160  1  0.70510000  0.50760000  0.33590000  1.0
  C  C161  1  0.70320000  0.55330000  0.38930000  1.0
  C  C162  1  0.75690000  0.62470000  0.38980000  1.0
  C  C163  1  0.64550000  0.52770000  0.43900000  1.0
  C  C164  1  0.75230000  0.66920000  0.43870000  1.0
  C  C165  1  0.64050000  0.57220000  0.48870000  1.0
  C  C166  1  0.69360000  0.64280000  0.48770000  1.0
  C  C167  1  0.60730000  0.71030000  0.56620000  1.0
  C  C168  1  0.59350000  0.69370000  0.62540000  1.0
  C  C169  1  0.53950000  0.74890000  0.53650000  1.0
  C  C170  1  0.50910000  0.71380000  0.65550000  1.0
  C  C171  1  0.45440000  0.77110000  0.56660000  1.0
  C  C172  1  0.43990000  0.75120000  0.62740000  1.0
  C  C173  1  0.34710000  0.77120000  0.65880000  1.0
  C  C174  1  0.51840000  0.48170000  0.23810000  1.0
  C  C175  1  0.42410000  0.49760000  0.26770000  1.0
  C  C176  1  0.41250000  0.54220000  0.31800000  1.0
  C  C177  1  0.34980000  0.46280000  0.25060000  1.0
  C  C178  1  0.32780000  0.54920000  0.35040000  1.0
  C  C179  1  0.26420000  0.47250000  0.28090000  1.0
  C  C180  1  0.25250000  0.51350000  0.33220000  1.0
  C  C181  1  0.09980000  0.47370000  0.35460000  1.0
  C  C182  1  0.03400000  0.51870000  0.32600000  1.0
  C  C183  1  0.09590000  0.38650000  0.37050000  1.0
  C  C184  1  0.96660000  0.47290000  0.30770000  1.0
  C  C185  1  0.02870000  0.34080000  0.35350000  1.0
  C  C186  1  0.96560000  0.38350000  0.31940000  1.0
  C  C187  1  0.89970000  0.33270000  0.29450000  1.0
  C  C188  1  0.03560000  0.96370000  0.79000000  1.0
  C  C189  1  0.95950000  0.99950000  0.83010000  1.0
  C  C190  1  0.87090000  0.97380000  0.82890000  1.0
  C  C191  1  0.97320000  0.05650000  0.87060000  1.0
  C  C192  1  0.90100000  0.08700000  0.90860000  1.0
  C  C193  1  0.79830000  0.00380000  0.86690000  1.0
  C  C194  1  0.81360000  0.06000000  0.90720000  1.0
  C  C195  1  0.74790000  0.12460000  0.99400000  1.0
  C  C196  1  0.79330000  0.07900000  0.03660000  1.0
  C  C197  1  0.70810000  0.20540000  0.00170000  1.0
  C  C198  1  0.80100000  0.11630000  0.08710000  1.0
  C  C199  1  0.71650000  0.24170000  0.05280000  1.0
  C  C200  1  0.76300000  0.19930000  0.09590000  1.0
  C  C201  1  0.77420000  0.23950000  0.15110000  1.0
  C  C202  1  0.21760000  0.07840000  0.64070000  1.0
  C  C203  1  0.24790000  0.06550000  0.57790000  1.0
  C  C204  1  0.32390000  0.01060000  0.56390000  1.0
  C  C205  1  0.20340000  0.10810000  0.53410000  1.0
  C  C206  1  0.35390000  0.99870000  0.50600000  1.0
  C  C207  1  0.23230000  0.09480000  0.47580000  1.0
  C  C208  1  0.30780000  0.03940000  0.46290000  1.0
  C  C209  1  0.39710000  0.96550000  0.38720000  1.0
  C  C210  1  0.37930000  0.87910000  0.40070000  1.0
  C  C211  1  0.47460000  0.99040000  0.35390000  1.0
  C  C212  1  0.44120000  0.81540000  0.37970000  1.0
  C  C213  1  0.52200000  0.83890000  0.34560000  1.0
  C  C214  1  0.53800000  0.92620000  0.33290000  1.0
  C  C215  1  0.58840000  0.77190000  0.31890000  1.0
  C  C216  1  0.25210000  0.16480000  0.87510000  1.0
  C  C217  1  0.28060000  0.17050000  0.93440000  1.0
  C  C218  1  0.21530000  0.16590000  0.98350000  1.0
  C  C219  1  0.37130000  0.18130000  0.94070000  1.0
  C  C220  1  0.23950000  0.17540000  0.03780000  1.0
  C  C221  1  0.39670000  0.18920000  0.99540000  1.0
  C  C222  1  0.32960000  0.18560000  0.04320000  1.0
  C  C223  1  0.42550000  0.16560000  0.12070000  1.0
  C  C224  1  0.46130000  0.08350000  0.10880000  1.0
  C  C225  1  0.46180000  0.21250000  0.15910000  1.0
  C  C226  1  0.53420000  0.04900000  0.13660000  1.0
  C  C227  1  0.53330000  0.17670000  0.18730000  1.0
  C  C228  1  0.57010000  0.09310000  0.17700000  1.0
  C  C229  1  0.64810000  0.05640000  0.20800000  1.0
  C  C230  1  0.08920000  0.27490000  0.78340000  1.0
  C  C231  1  0.01780000  0.33650000  0.81130000  1.0
  C  C232  1  0.92880000  0.31360000  0.81860000  1.0
  C  C233  1  0.03880000  0.41400000  0.82840000  1.0
  C  C234  1  0.85980000  0.36950000  0.84230000  1.0
  C  C235  1  0.96910000  0.46920000  0.85310000  1.0
  C  C236  1  0.88160000  0.44490000  0.86000000  1.0
  C  C237  1  0.79550000  0.51360000  0.93880000  1.0
  C  C238  1  0.82620000  0.45520000  0.98100000  1.0
  C  C239  1  0.74280000  0.58550000  0.95360000  1.0
  C  C240  1  0.80570000  0.47010000  0.03930000  1.0
  C  C241  1  0.72210000  0.59840000  0.01200000  1.0
  C  C242  1  0.75330000  0.54270000  0.05560000  1.0
  C  C243  1  0.72920000  0.56230000  0.11790000  1.0
  C  C244  1  0.29490000  0.49240000  0.66410000  1.0
  C  C245  1  0.29680000  0.44670000  0.61070000  1.0
  C  C246  1  0.24310000  0.37530000  0.61020000  1.0
  C  C247  1  0.35450000  0.47230000  0.56100000  1.0
  C  C248  1  0.24770000  0.33080000  0.56130000  1.0
  C  C249  1  0.35950000  0.42780000  0.51130000  1.0
  C  C250  1  0.30640000  0.35720000  0.51230000  1.0
  C  C251  1  0.39270000  0.28970000  0.43380000  1.0
  C  C252  1  0.40650000  0.30630000  0.37460000  1.0
  C  C253  1  0.46050000  0.25110000  0.46350000  1.0
  C  C254  1  0.49090000  0.28620000  0.34450000  1.0
  C  C255  1  0.54560000  0.22890000  0.43340000  1.0
  C  C256  1  0.56010000  0.24880000  0.37260000  1.0
  C  C257  1  0.65290000  0.22880000  0.34120000  1.0
  C  C258  1  0.48160000  0.51830000  0.76190000  1.0
  C  C259  1  0.57590000  0.50240000  0.73230000  1.0
  C  C260  1  0.58750000  0.45780000  0.68200000  1.0
  C  C261  1  0.65020000  0.53720000  0.74940000  1.0
  C  C262  1  0.67220000  0.45080000  0.64960000  1.0
  C  C263  1  0.73580000  0.52750000  0.71910000  1.0
  C  C264  1  0.74750000  0.48650000  0.66780000  1.0
  C  C265  1  0.90020000  0.52630000  0.64540000  1.0
  C  C266  1  0.96600000  0.48130000  0.67400000  1.0
  C  C267  1  0.90410000  0.61350000  0.62950000  1.0
  C  C268  1  0.03340000  0.52710000  0.69230000  1.0
  C  C269  1  0.97130000  0.65920000  0.64650000  1.0
  C  C270  1  0.03440000  0.61650000  0.68060000  1.0
  C  C271  1  0.10030000  0.66730000  0.70550000  1.0
  O  O272  1  0.97650000  0.09840000  0.23803000  1.0
  O  O273  1  0.88570000  0.00170000  0.21591000  1.0
  O  O274  1  0.26350000  0.91200000  0.05755000  1.0
  O  O275  1  0.17490000  0.79700000  0.81441000  1.0
  O  O276  1  0.27020000  0.68860000  0.84134000  1.0
  O  O277  1  0.75710000  0.97940000  0.31968000  1.0
  O  O278  1  0.82730000  0.85480000  0.34410000  1.0
  O  O279  1  0.66680000  0.96910000  0.59626000  1.0
  O  O280  1  0.43190000  0.30570000  0.67774000  1.0
  O  O281  1  0.33630000  0.20320000  0.71070000  1.0
  O  O282  1  0.82060000  0.87080000  0.12981000  1.0
  O  O283  1  0.69620000  0.80490000  0.17037000  1.0
  O  O284  1  0.65140000  0.79790000  0.90180000  1.0
  O  O285  1  0.32210000  0.01990000  0.80001000  1.0
  O  O286  1  0.32160000  0.89770000  0.75750000  1.0
  O  O287  1  0.93380000  0.79600000  0.22995000  1.0
  O  O288  1  0.82690000  0.70550000  0.22502000  1.0
  O  O289  1  0.18830000  0.49580000  0.12040000  1.0
  O  O290  1  0.24580000  0.49110000  0.84200000  1.0
  O  O291  1  0.31480000  0.36870000  0.87168000  1.0
  O  O292  1  0.73720000  0.54670000  0.28647000  1.0
  O  O293  1  0.67460000  0.43270000  0.33939000  1.0
  O  O294  1  0.69340000  0.68860000  0.53650000  1.0
  O  O295  1  0.32510000  0.73450000  0.71016000  1.0
  O  O296  1  0.29370000  0.82610000  0.63542000  1.0
  O  O297  1  0.58080000  0.53350000  0.24100000  1.0
  O  O298  1  0.53840000  0.41130000  0.21423000  1.0
  O  O299  1  0.17200000  0.52110000  0.36830000  1.0
  O  O300  1  0.85050000  0.37490000  0.25770000  1.0
  O  O301  1  0.89330000  0.25250000  0.30818000  1.0
  O  O302  1  0.02350000  0.90160000  0.76197000  1.0
  O  O303  1  0.11430000  0.99830000  0.78409000  1.0
  O  O304  1  0.73650000  0.08800000  0.94245000  1.0
  O  O305  1  0.82510000  0.20300000  0.18559000  1.0
  O  O306  1  0.72980000  0.31140000  0.15866000  1.0
  O  O307  1  0.24290000  0.02060000  0.68032000  1.0
  O  O308  1  0.17270000  0.14520000  0.65590000  1.0
  O  O309  1  0.33320000  0.03090000  0.40374000  1.0
  O  O310  1  0.56810000  0.69430000  0.32226000  1.0
  O  O311  1  0.66370000  0.79680000  0.28930000  1.0
  O  O312  1  0.17940000  0.12920000  0.87019000  1.0
  O  O313  1  0.30380000  0.19510000  0.82963000  1.0
  O  O314  1  0.34860000  0.20210000  0.09820000  1.0
  O  O315  1  0.67790000  0.98010000  0.19999000  1.0
  O  O316  1  0.67840000  0.10230000  0.24250000  1.0
  O  O317  1  0.06620000  0.20400000  0.77005000  1.0
  O  O318  1  0.17310000  0.29450000  0.77498000  1.0
  O  O319  1  0.81170000  0.50420000  0.87960000  1.0
  O  O320  1  0.75420000  0.50890000  0.15800000  1.0
  O  O321  1  0.68520000  0.63130000  0.12832000  1.0
  O  O322  1  0.26280000  0.45330000  0.71353000  1.0
  O  O323  1  0.32540000  0.56730000  0.66061000  1.0
  O  O324  1  0.30660000  0.31140000  0.46350000  1.0
  O  O325  1  0.67490000  0.26550000  0.28984000  1.0
  O  O326  1  0.70630000  0.17390000  0.36458000  1.0
  O  O327  1  0.41920000  0.46650000  0.75900000  1.0
  O  O328  1  0.46160000  0.58870000  0.78577000  1.0
  O  O329  1  0.82800000  0.47890000  0.63170000  1.0
  O  O330  1  0.14950000  0.62510000  0.74230000  1.0
  O  O331  1  0.10670000  0.74750000  0.69182000  1.0
