# generated using pymatgen
data_TbZnH7C12(NO2)4
_symmetry_space_group_name_H-M   'P 1'
_cell_length_a   9.21400000
_cell_length_b   13.02590000
_cell_length_c   18.59590000
_cell_angle_alpha   72.34640000
_cell_angle_beta   75.65600000
_cell_angle_gamma   69.28750000
_symmetry_Int_Tables_number   1
_chemical_formula_structural   TbZnH7C12(NO2)4
_chemical_formula_sum   'Tb4 Zn4 H28 C48 N16 O32'
_cell_volume   1964.45985141
_cell_formula_units_Z   4
loop_
 _symmetry_equiv_pos_site_id
 _symmetry_equiv_pos_as_xyz
  1  'x, y, z'
loop_
 _atom_site_type_symbol
 _atom_site_label
 _atom_site_symmetry_multiplicity
 _atom_site_fract_x
 _atom_site_fract_y
 _atom_site_fract_z
 _atom_site_occupancy
  Tb  Tb0  1  0.76279000  0.08921000  0.99369000  1.0
  Tb  Tb1  1  0.23721000  0.91079000  0.00631000  1.0
  Tb  Tb2  1  0.84569000  0.41079000  0.50631000  1.0
  Tb  Tb3  1  0.15431000  0.58921000  0.49369000  1.0
  Zn  Zn4  1  0.77400000  0.08895000  0.33443000  1.0
  Zn  Zn5  1  0.22600000  0.91105000  0.66557000  1.0
  Zn  Zn6  1  0.19738000  0.41105000  0.16557000  1.0
  Zn  Zn7  1  0.80262000  0.58895000  0.83443000  1.0
  H  H8  1  0.62060000  0.57780000  0.69420000  1.0
  H  H9  1  0.64370000  0.95720000  0.64660000  1.0
  H  H10  1  0.28730000  0.01360000  0.44040000  1.0
  H  H11  1  0.11170000  0.60670000  0.90850000  1.0
  H  H12  1  0.99170000  0.81950000  0.86150000  1.0
  H  H13  1  0.00830000  0.18050000  0.13850000  1.0
  H  H14  1  0.50400000  0.67380000  0.64300000  1.0
  H  H15  1  0.17920000  0.17380000  0.14300000  1.0
  H  H16  1  0.49600000  0.32620000  0.35700000  1.0
  H  H17  1  0.25870000  0.51360000  0.94040000  1.0
  H  H18  1  0.37310000  0.10670000  0.40850000  1.0
  H  H19  1  0.32730000  0.31950000  0.36150000  1.0
  H  H20  1  0.71270000  0.98640000  0.55960000  1.0
  H  H21  1  0.26300000  0.30750000  0.96530000  1.0
  H  H22  1  0.37940000  0.42220000  0.30580000  1.0
  H  H23  1  0.74130000  0.48640000  0.05960000  1.0
  H  H24  1  0.62690000  0.89330000  0.59150000  1.0
  H  H25  1  0.73700000  0.69250000  0.03470000  1.0
  H  H26  1  0.82080000  0.82620000  0.85700000  1.0
  H  H27  1  0.88830000  0.39330000  0.09150000  1.0
  H  H28  1  0.53580000  0.19250000  0.53470000  1.0
  H  H29  1  0.67270000  0.68050000  0.63850000  1.0
  H  H30  1  0.35630000  0.04280000  0.35340000  1.0
  H  H31  1  0.89260000  0.92220000  0.80580000  1.0
  H  H32  1  0.75250000  0.45720000  0.14660000  1.0
  H  H33  1  0.10740000  0.07780000  0.19420000  1.0
  H  H34  1  0.46420000  0.80750000  0.46530000  1.0
  H  H35  1  0.24750000  0.54280000  0.85340000  1.0
  C  C36  1  0.06282000  0.13966000  0.58150000  1.0
  C  C37  1  0.89176000  0.55218000  0.08030000  1.0
  C  C38  1  0.77116000  0.86098000  0.42770000  1.0
  C  C39  1  0.08467000  0.15746000  0.17180000  1.0
  C  C40  1  0.88329000  0.84492000  0.02010000  1.0
  C  C41  1  0.58607000  0.65746000  0.67180000  1.0
  C  C42  1  0.30459000  0.21982000  0.54320000  1.0
  C  C43  1  0.24736000  0.94078000  0.81470000  1.0
  C  C44  1  0.50431000  0.76828000  0.83810000  1.0
  C  C45  1  0.75264000  0.05922000  0.18530000  1.0
  C  C46  1  0.47448000  0.28004000  0.26660000  1.0
  C  C47  1  0.05984000  0.63902000  0.07230000  1.0
  C  C48  1  0.97888000  0.78004000  0.76660000  1.0
  C  C49  1  0.94016000  0.36098000  0.92770000  1.0
  C  C50  1  0.93239000  0.71982000  0.04320000  1.0
  C  C51  1  0.44144000  0.24012000  0.09100000  1.0
  C  C52  1  0.62840000  0.96450000  0.59590000  1.0
  C  C53  1  0.88931000  0.26828000  0.33810000  1.0
  C  C54  1  0.69541000  0.78018000  0.45680000  1.0
  C  C55  1  0.41393000  0.34254000  0.32820000  1.0
  C  C56  1  0.47576000  0.05218000  0.58030000  1.0
  C  C57  1  0.02112000  0.21996000  0.23340000  1.0
  C  C58  1  0.11671000  0.15508000  0.97990000  1.0
  C  C59  1  0.37160000  0.03550000  0.40410000  1.0
  C  C60  1  0.91533000  0.84254000  0.82820000  1.0
  C  C61  1  0.38240000  0.84170000  0.79990000  1.0
  C  C62  1  0.81120000  0.46450000  0.09590000  1.0
  C  C63  1  0.18880000  0.53550000  0.90410000  1.0
  C  C64  1  0.22884000  0.13902000  0.57230000  1.0
  C  C65  1  0.99716000  0.44078000  0.31470000  1.0
  C  C66  1  0.02400000  0.65830000  0.70010000  1.0
  C  C67  1  0.25169000  0.34492000  0.52010000  1.0
  C  C68  1  0.97600000  0.34170000  0.29990000  1.0
  C  C69  1  0.22744000  0.74012000  0.59100000  1.0
  C  C70  1  0.52552000  0.71996000  0.73340000  1.0
  C  C71  1  0.74831000  0.65508000  0.47990000  1.0
  C  C72  1  0.55856000  0.75988000  0.90900000  1.0
  C  C73  1  0.93718000  0.86034000  0.41850000  1.0
  C  C74  1  0.61760000  0.15830000  0.20010000  1.0
  C  C75  1  0.11069000  0.73172000  0.66190000  1.0
  C  C76  1  0.21602000  0.63966000  0.08150000  1.0
  C  C77  1  0.06761000  0.28018000  0.95680000  1.0
  C  C78  1  0.49569000  0.23172000  0.16190000  1.0
  C  C79  1  0.52424000  0.94782000  0.41970000  1.0
  C  C80  1  0.77256000  0.25988000  0.40900000  1.0
  C  C81  1  0.78398000  0.36034000  0.91850000  1.0
  C  C82  1  0.00284000  0.55922000  0.68530000  1.0
  C  C83  1  0.10824000  0.44782000  0.91970000  1.0
  N  N84  1  0.03265000  0.53494000  0.09636000  1.0
  N  N85  1  0.94194000  0.68852000  0.76680000  1.0
  N  N86  1  0.17204000  0.33742000  0.95110000  1.0
  N  N87  1  0.53944000  0.83742000  0.45110000  1.0
  N  N88  1  0.08102000  0.80859000  0.70497000  1.0
  N  N89  1  0.96735000  0.46506000  0.90364000  1.0
  N  N90  1  0.46056000  0.16258000  0.54890000  1.0
  N  N91  1  0.40542000  0.30859000  0.20497000  1.0
  N  N92  1  0.33605000  0.03494000  0.59636000  1.0
  N  N93  1  0.59458000  0.69141000  0.79503000  1.0
  N  N94  1  0.05806000  0.31148000  0.23320000  1.0
  N  N95  1  0.39726000  0.81148000  0.73320000  1.0
  N  N96  1  0.82796000  0.66258000  0.04890000  1.0
  N  N97  1  0.66395000  0.96506000  0.40364000  1.0
  N  N98  1  0.60274000  0.18852000  0.26680000  1.0
  N  N99  1  0.91898000  0.19141000  0.29503000  1.0
  O  O100  1  0.65394000  0.60265000  0.48367000  1.0
  O  O101  1  0.01883000  0.10054000  0.99520000  1.0
  O  O102  1  0.68232000  0.68102000  0.92514000  1.0
  O  O103  1  0.88543000  0.60054000  0.49520000  1.0
  O  O104  1  0.03168000  0.05151000  0.62133000  1.0
  O  O105  1  0.34606000  0.39735000  0.51633000  1.0
  O  O106  1  0.21299000  0.96587000  0.87895000  1.0
  O  O107  1  0.16696000  0.99562000  0.76246000  1.0
  O  O108  1  0.98117000  0.89946000  0.00480000  1.0
  O  O109  1  0.92504000  0.50438000  0.73754000  1.0
  O  O110  1  0.78701000  0.03413000  0.12105000  1.0
  O  O111  1  0.83304000  0.00438000  0.23754000  1.0
  O  O112  1  0.51359000  0.16741000  0.05221000  1.0
  O  O113  1  0.74026000  0.89735000  0.01633000  1.0
  O  O114  1  0.73862000  0.27509000  0.95187000  1.0
  O  O115  1  0.29548000  0.55151000  0.12133000  1.0
  O  O116  1  0.11457000  0.39946000  0.50480000  1.0
  O  O117  1  0.31768000  0.31898000  0.07486000  1.0
  O  O118  1  0.07496000  0.49562000  0.26246000  1.0
  O  O119  1  0.26679000  0.66741000  0.55221000  1.0
  O  O120  1  0.05781000  0.53413000  0.62105000  1.0
  O  O121  1  0.96558000  0.22491000  0.54813000  1.0
  O  O122  1  0.71152000  0.18102000  0.42514000  1.0
  O  O123  1  0.03442000  0.77509000  0.45187000  1.0
  O  O124  1  0.48641000  0.83259000  0.94779000  1.0
  O  O125  1  0.96832000  0.94849000  0.37867000  1.0
  O  O126  1  0.73321000  0.33259000  0.44779000  1.0
  O  O127  1  0.26138000  0.72491000  0.04813000  1.0
  O  O128  1  0.94219000  0.46587000  0.37895000  1.0
  O  O129  1  0.25974000  0.10265000  0.98367000  1.0
  O  O130  1  0.70452000  0.44849000  0.87867000  1.0
  O  O131  1  0.28848000  0.81898000  0.57486000  1.0
