# generated using pymatgen
data_GaH5C8O5
_symmetry_space_group_name_H-M   'P 1'
_cell_length_a   17.43700000
_cell_length_b   6.74750000
_cell_length_c   12.15410000
_cell_angle_alpha   90.00000000
_cell_angle_beta   90.00000000
_cell_angle_gamma   90.00000000
_symmetry_Int_Tables_number   1
_chemical_formula_structural   GaH5C8O5
_chemical_formula_sum   'Ga4 H20 C32 O20'
_cell_volume   1430.00470387
_cell_formula_units_Z   4
loop_
 _symmetry_equiv_pos_site_id
 _symmetry_equiv_pos_as_xyz
  1  'x, y, z'
loop_
 _atom_site_type_symbol
 _atom_site_label
 _atom_site_symmetry_multiplicity
 _atom_site_fract_x
 _atom_site_fract_y
 _atom_site_fract_z
 _atom_site_occupancy
  Ga  Ga0  1  0.00000000  0.00000000  0.00000000  1.0
  Ga  Ga1  1  0.50000000  0.00000000  0.50000000  1.0
  Ga  Ga2  1  0.00000000  0.50000000  0.00000000  1.0
  Ga  Ga3  1  0.50000000  0.50000000  0.50000000  1.0
  H  H4  1  0.81190000  0.56610000  0.79890000  1.0
  H  H5  1  0.68810000  0.43390000  0.29890000  1.0
  H  H6  1  0.18810000  0.06610000  0.20110000  1.0
  H  H7  1  0.31190000  0.93390000  0.70110000  1.0
  H  H8  1  0.18810000  0.43390000  0.20110000  1.0
  H  H9  1  0.31190000  0.56610000  0.70110000  1.0
  H  H10  1  0.81190000  0.93390000  0.79890000  1.0
  H  H11  1  0.68810000  0.06610000  0.29890000  1.0
  H  H12  1  0.70210000  0.56470000  0.67040000  1.0
  H  H13  1  0.79790000  0.43530000  0.17040000  1.0
  H  H14  1  0.29790000  0.06470000  0.32960000  1.0
  H  H15  1  0.20210000  0.93530000  0.82960000  1.0
  H  H16  1  0.29790000  0.43530000  0.32960000  1.0
  H  H17  1  0.20210000  0.56470000  0.82960000  1.0
  H  H18  1  0.70210000  0.93530000  0.67040000  1.0
  H  H19  1  0.79790000  0.06470000  0.17040000  1.0
  H  H20  1  0.50640000  0.75000000  0.65568000  1.0
  H  H21  1  0.99360000  0.25000000  0.15568000  1.0
  H  H22  1  0.49360000  0.25000000  0.34432000  1.0
  H  H23  1  0.00640000  0.75000000  0.84432000  1.0
  C  C24  1  0.79127000  0.42880000  0.76510000  1.0
  C  C25  1  0.70873000  0.57120000  0.26510000  1.0
  C  C26  1  0.20873000  0.92880000  0.23490000  1.0
  C  C27  1  0.29127000  0.07120000  0.73490000  1.0
  C  C28  1  0.20873000  0.57120000  0.23490000  1.0
  C  C29  1  0.29127000  0.42880000  0.73490000  1.0
  C  C30  1  0.79127000  0.07120000  0.76510000  1.0
  C  C31  1  0.70873000  0.92880000  0.26510000  1.0
  C  C32  1  0.72605000  0.42740000  0.69950000  1.0
  C  C33  1  0.77395000  0.57260000  0.19950000  1.0
  C  C34  1  0.27395000  0.92740000  0.30050000  1.0
  C  C35  1  0.22605000  0.07260000  0.80050000  1.0
  C  C36  1  0.27395000  0.57260000  0.30050000  1.0
  C  C37  1  0.22605000  0.42740000  0.80050000  1.0
  C  C38  1  0.72605000  0.07260000  0.69950000  1.0
  C  C39  1  0.77395000  0.92740000  0.19950000  1.0
  C  C40  1  0.82814000  0.25000000  0.79140000  1.0
  C  C41  1  0.67186000  0.75000000  0.29140000  1.0
  C  C42  1  0.17186000  0.75000000  0.20860000  1.0
  C  C43  1  0.32814000  0.25000000  0.70860000  1.0
  C  C44  1  0.89907000  0.25000000  0.86000000  1.0
  C  C45  1  0.60093000  0.75000000  0.36000000  1.0
  C  C46  1  0.10093000  0.75000000  0.14000000  1.0
  C  C47  1  0.39907000  0.25000000  0.64000000  1.0
  C  C48  1  0.69218000  0.25000000  0.67120000  1.0
  C  C49  1  0.80782000  0.75000000  0.17120000  1.0
  C  C50  1  0.30782000  0.75000000  0.32880000  1.0
  C  C51  1  0.19218000  0.25000000  0.82880000  1.0
  C  C52  1  0.61762000  0.25000000  0.61080000  1.0
  C  C53  1  0.88238000  0.75000000  0.11080000  1.0
  C  C54  1  0.38238000  0.75000000  0.38920000  1.0
  C  C55  1  0.11762000  0.25000000  0.88920000  1.0
  O  O56  1  0.92632000  0.08300000  0.88584000  1.0
  O  O57  1  0.57368000  0.91700000  0.38584000  1.0
  O  O58  1  0.07368000  0.58300000  0.11416000  1.0
  O  O59  1  0.42632000  0.41700000  0.61416000  1.0
  O  O60  1  0.07368000  0.91700000  0.11416000  1.0
  O  O61  1  0.42632000  0.08300000  0.61416000  1.0
  O  O62  1  0.92632000  0.41700000  0.88584000  1.0
  O  O63  1  0.57368000  0.58300000  0.38584000  1.0
  O  O64  1  0.58949000  0.08260000  0.58860000  1.0
  O  O65  1  0.91051000  0.91740000  0.08860000  1.0
  O  O66  1  0.41051000  0.58260000  0.41140000  1.0
  O  O67  1  0.08949000  0.41740000  0.91140000  1.0
  O  O68  1  0.41051000  0.91740000  0.41140000  1.0
  O  O69  1  0.08949000  0.08260000  0.91140000  1.0
  O  O70  1  0.58949000  0.41740000  0.58860000  1.0
  O  O71  1  0.91051000  0.58260000  0.08860000  1.0
  O  O72  1  0.99360000  0.25000000  0.07340000  1.0
  O  O73  1  0.50640000  0.75000000  0.57340000  1.0
  O  O74  1  0.00640000  0.75000000  0.92660000  1.0
  O  O75  1  0.49360000  0.25000000  0.42660000  1.0
