# generated using pymatgen
data_ZnH12C18(NO2)2
_symmetry_space_group_name_H-M   'P 1'
_cell_length_a   27.69220000
_cell_length_b   27.69220000
_cell_length_c   3.54920000
_cell_angle_alpha   90.00000000
_cell_angle_beta   90.00000000
_cell_angle_gamma   90.00000000
_symmetry_Int_Tables_number   1
_chemical_formula_structural   ZnH12C18(NO2)2
_chemical_formula_sum   'Zn8 H96 C144 N16 O32'
_cell_volume   2721.73220363
_cell_formula_units_Z   8
loop_
 _symmetry_equiv_pos_site_id
 _symmetry_equiv_pos_as_xyz
  1  'x, y, z'
loop_
 _atom_site_type_symbol
 _atom_site_label
 _atom_site_symmetry_multiplicity
 _atom_site_fract_x
 _atom_site_fract_y
 _atom_site_fract_z
 _atom_site_occupancy
  Zn  Zn0  1  0.28489000  0.21388000  0.84240000  1.0
  Zn  Zn1  1  0.71511000  0.78612000  0.84240000  1.0
  Zn  Zn2  1  0.71388000  0.21511000  0.65760000  1.0
  Zn  Zn3  1  0.28612000  0.78489000  0.65760000  1.0
  Zn  Zn4  1  0.78489000  0.71388000  0.34240000  1.0
  Zn  Zn5  1  0.21511000  0.28612000  0.34240000  1.0
  Zn  Zn6  1  0.21388000  0.71511000  0.15760000  1.0
  Zn  Zn7  1  0.78612000  0.28489000  0.15760000  1.0
  H  H8  1  0.31060000  0.11030000  0.04140000  1.0
  H  H9  1  0.18170000  0.18600000  0.39920000  1.0
  H  H10  1  0.10190000  0.18220000  0.10790000  1.0
  H  H11  1  0.03340000  0.13980000  0.94050000  1.0
  H  H12  1  0.02720000  0.05860000  0.09980000  1.0
  H  H13  1  0.09000000  0.02100000  0.41180000  1.0
  H  H14  1  0.16770000  0.02210000  0.69860000  1.0
  H  H15  1  0.22110000  0.92470000  0.39550000  1.0
  H  H16  1  0.36090000  0.95260000  0.18160000  1.0
  H  H17  1  0.34010000  0.02880000  0.96200000  1.0
  H  H18  1  0.20040000  0.00080000  0.17590000  1.0
  H  H19  1  0.30920000  0.23530000  0.23040000  1.0
  H  H20  1  0.68940000  0.88970000  0.04140000  1.0
  H  H21  1  0.81830000  0.81400000  0.39920000  1.0
  H  H22  1  0.89810000  0.81780000  0.10790000  1.0
  H  H23  1  0.96660000  0.86020000  0.94050000  1.0
  H  H24  1  0.97280000  0.94140000  0.09980000  1.0
  H  H25  1  0.91000000  0.97900000  0.41180000  1.0
  H  H26  1  0.83230000  0.97790000  0.69860000  1.0
  H  H27  1  0.77890000  0.07530000  0.39550000  1.0
  H  H28  1  0.63910000  0.04740000  0.18160000  1.0
  H  H29  1  0.65990000  0.97120000  0.96200000  1.0
  H  H30  1  0.79960000  0.99920000  0.17590000  1.0
  H  H31  1  0.69080000  0.76470000  0.23040000  1.0
  H  H32  1  0.61030000  0.18940000  0.45860000  1.0
  H  H33  1  0.68600000  0.31830000  0.10080000  1.0
  H  H34  1  0.68220000  0.39810000  0.39210000  1.0
  H  H35  1  0.63980000  0.46660000  0.55950000  1.0
  H  H36  1  0.55860000  0.47280000  0.40020000  1.0
  H  H37  1  0.52100000  0.41000000  0.08820000  1.0
  H  H38  1  0.52210000  0.33230000  0.80140000  1.0
  H  H39  1  0.42470000  0.27890000  0.10450000  1.0
  H  H40  1  0.45260000  0.13910000  0.31840000  1.0
  H  H41  1  0.52880000  0.15990000  0.53800000  1.0
  H  H42  1  0.50080000  0.29960000  0.32410000  1.0
  H  H43  1  0.73530000  0.19080000  0.26960000  1.0
  H  H44  1  0.38970000  0.81060000  0.45860000  1.0
  H  H45  1  0.31400000  0.68170000  0.10080000  1.0
  H  H46  1  0.31780000  0.60190000  0.39210000  1.0
  H  H47  1  0.36020000  0.53340000  0.55950000  1.0
  H  H48  1  0.44140000  0.52720000  0.40020000  1.0
  H  H49  1  0.47900000  0.59000000  0.08820000  1.0
  H  H50  1  0.47790000  0.66770000  0.80140000  1.0
  H  H51  1  0.57530000  0.72110000  0.10450000  1.0
  H  H52  1  0.54740000  0.86090000  0.31840000  1.0
  H  H53  1  0.47120000  0.84010000  0.53800000  1.0
  H  H54  1  0.49920000  0.70040000  0.32410000  1.0
  H  H55  1  0.26470000  0.80920000  0.26960000  1.0
  H  H56  1  0.81060000  0.61030000  0.54140000  1.0
  H  H57  1  0.68170000  0.68600000  0.89920000  1.0
  H  H58  1  0.60190000  0.68220000  0.60790000  1.0
  H  H59  1  0.53340000  0.63980000  0.44050000  1.0
  H  H60  1  0.52720000  0.55860000  0.59980000  1.0
  H  H61  1  0.59000000  0.52100000  0.91180000  1.0
  H  H62  1  0.66770000  0.52210000  0.19860000  1.0
  H  H63  1  0.72110000  0.42470000  0.89550000  1.0
  H  H64  1  0.86090000  0.45260000  0.68160000  1.0
  H  H65  1  0.84010000  0.52880000  0.46200000  1.0
  H  H66  1  0.70040000  0.50080000  0.67590000  1.0
  H  H67  1  0.80920000  0.73530000  0.73040000  1.0
  H  H68  1  0.18940000  0.38970000  0.54140000  1.0
  H  H69  1  0.31830000  0.31400000  0.89920000  1.0
  H  H70  1  0.39810000  0.31780000  0.60790000  1.0
  H  H71  1  0.46660000  0.36020000  0.44050000  1.0
  H  H72  1  0.47280000  0.44140000  0.59980000  1.0
  H  H73  1  0.41000000  0.47900000  0.91180000  1.0
  H  H74  1  0.33230000  0.47790000  0.19860000  1.0
  H  H75  1  0.27890000  0.57530000  0.89550000  1.0
  H  H76  1  0.13910000  0.54740000  0.68160000  1.0
  H  H77  1  0.15990000  0.47120000  0.46200000  1.0
  H  H78  1  0.29960000  0.49920000  0.67590000  1.0
  H  H79  1  0.19080000  0.26470000  0.73040000  1.0
  H  H80  1  0.11030000  0.68940000  0.95860000  1.0
  H  H81  1  0.18600000  0.81830000  0.60080000  1.0
  H  H82  1  0.18220000  0.89810000  0.89210000  1.0
  H  H83  1  0.13980000  0.96660000  0.05950000  1.0
  H  H84  1  0.05860000  0.97280000  0.90020000  1.0
  H  H85  1  0.02100000  0.91000000  0.58820000  1.0
  H  H86  1  0.02210000  0.83230000  0.30140000  1.0
  H  H87  1  0.92470000  0.77890000  0.60450000  1.0
  H  H88  1  0.95260000  0.63910000  0.81840000  1.0
  H  H89  1  0.02880000  0.65990000  0.03800000  1.0
  H  H90  1  0.00080000  0.79960000  0.82410000  1.0
  H  H91  1  0.23530000  0.69080000  0.76960000  1.0
  H  H92  1  0.88970000  0.31060000  0.95860000  1.0
  H  H93  1  0.81400000  0.18170000  0.60080000  1.0
  H  H94  1  0.81780000  0.10190000  0.89210000  1.0
  H  H95  1  0.86020000  0.03340000  0.05950000  1.0
  H  H96  1  0.94140000  0.02720000  0.90020000  1.0
  H  H97  1  0.97900000  0.09000000  0.58820000  1.0
  H  H98  1  0.97790000  0.16770000  0.30140000  1.0
  H  H99  1  0.07530000  0.22110000  0.60450000  1.0
  H  H100  1  0.04740000  0.36090000  0.81840000  1.0
  H  H101  1  0.97120000  0.34010000  0.03800000  1.0
  H  H102  1  0.99920000  0.20040000  0.82410000  1.0
  H  H103  1  0.76470000  0.30920000  0.76960000  1.0
  C  C104  1  0.28030000  0.10880000  0.92950000  1.0
  C  C105  1  0.21530000  0.12940000  0.64450000  1.0
  C  C106  1  0.17870000  0.15340000  0.45800000  1.0
  C  C107  1  0.13750000  0.12810000  0.36110000  1.0
  C  C108  1  0.09960000  0.14970000  0.17000000  1.0
  C  C109  1  0.05830000  0.12450000  0.06900000  1.0
  C  C110  1  0.05480000  0.07600000  0.16300000  1.0
  C  C111  1  0.09240000  0.05360000  0.35200000  1.0
  C  C112  1  0.13400000  0.07920000  0.45340000  1.0
  C  C113  1  0.17060000  0.05470000  0.64000000  1.0
  C  C114  1  0.21160000  0.08050000  0.73600000  1.0
  C  C115  1  0.24500000  0.94550000  0.30900000  1.0
  C  C116  1  0.29310000  0.93110000  0.31000000  1.0
  C  C117  1  0.32870000  0.96230000  0.18000000  1.0
  C  C118  1  0.31630000  0.00790000  0.04900000  1.0
  C  C119  1  0.26820000  0.02230000  0.04700000  1.0
  C  C120  1  0.23250000  0.99120000  0.17700000  1.0
  C  C121  1  0.30120000  0.88000000  0.45100000  1.0
  C  C122  1  0.71970000  0.89120000  0.92950000  1.0
  C  C123  1  0.78470000  0.87060000  0.64450000  1.0
  C  C124  1  0.82130000  0.84660000  0.45800000  1.0
  C  C125  1  0.86250000  0.87190000  0.36110000  1.0
  C  C126  1  0.90040000  0.85030000  0.17000000  1.0
  C  C127  1  0.94170000  0.87550000  0.06900000  1.0
  C  C128  1  0.94520000  0.92400000  0.16300000  1.0
  C  C129  1  0.90760000  0.94640000  0.35200000  1.0
  C  C130  1  0.86600000  0.92080000  0.45340000  1.0
  C  C131  1  0.82940000  0.94530000  0.64000000  1.0
  C  C132  1  0.78840000  0.91950000  0.73600000  1.0
  C  C133  1  0.75500000  0.05450000  0.30900000  1.0
  C  C134  1  0.70690000  0.06890000  0.31000000  1.0
  C  C135  1  0.67130000  0.03770000  0.18000000  1.0
  C  C136  1  0.68370000  0.99210000  0.04900000  1.0
  C  C137  1  0.73180000  0.97770000  0.04700000  1.0
  C  C138  1  0.76750000  0.00880000  0.17700000  1.0
  C  C139  1  0.69880000  0.12000000  0.45100000  1.0
  C  C140  1  0.60880000  0.21970000  0.57050000  1.0
  C  C141  1  0.62940000  0.28470000  0.85550000  1.0
  C  C142  1  0.65340000  0.32130000  0.04200000  1.0
  C  C143  1  0.62810000  0.36250000  0.13890000  1.0
  C  C144  1  0.64970000  0.40040000  0.33000000  1.0
  C  C145  1  0.62450000  0.44170000  0.43100000  1.0
  C  C146  1  0.57600000  0.44520000  0.33700000  1.0
  C  C147  1  0.55360000  0.40760000  0.14800000  1.0
  C  C148  1  0.57920000  0.36600000  0.04660000  1.0
  C  C149  1  0.55470000  0.32940000  0.86000000  1.0
  C  C150  1  0.58050000  0.28840000  0.76400000  1.0
  C  C151  1  0.44550000  0.25500000  0.19100000  1.0
  C  C152  1  0.43110000  0.20690000  0.19000000  1.0
  C  C153  1  0.46230000  0.17130000  0.32000000  1.0
  C  C154  1  0.50790000  0.18370000  0.45100000  1.0
  C  C155  1  0.52230000  0.23180000  0.45300000  1.0
  C  C156  1  0.49120000  0.26750000  0.32300000  1.0
  C  C157  1  0.38000000  0.19880000  0.04900000  1.0
  C  C158  1  0.39120000  0.78030000  0.57050000  1.0
  C  C159  1  0.37060000  0.71530000  0.85550000  1.0
  C  C160  1  0.34660000  0.67870000  0.04200000  1.0
  C  C161  1  0.37190000  0.63750000  0.13890000  1.0
  C  C162  1  0.35030000  0.59960000  0.33000000  1.0
  C  C163  1  0.37550000  0.55830000  0.43100000  1.0
  C  C164  1  0.42400000  0.55480000  0.33700000  1.0
  C  C165  1  0.44640000  0.59240000  0.14800000  1.0
  C  C166  1  0.42080000  0.63400000  0.04660000  1.0
  C  C167  1  0.44530000  0.67060000  0.86000000  1.0
  C  C168  1  0.41950000  0.71160000  0.76400000  1.0
  C  C169  1  0.55450000  0.74500000  0.19100000  1.0
  C  C170  1  0.56890000  0.79310000  0.19000000  1.0
  C  C171  1  0.53770000  0.82870000  0.32000000  1.0
  C  C172  1  0.49210000  0.81630000  0.45100000  1.0
  C  C173  1  0.47770000  0.76820000  0.45300000  1.0
  C  C174  1  0.50880000  0.73250000  0.32300000  1.0
  C  C175  1  0.62000000  0.80120000  0.04900000  1.0
  C  C176  1  0.78030000  0.60880000  0.42950000  1.0
  C  C177  1  0.71530000  0.62940000  0.14450000  1.0
  C  C178  1  0.67870000  0.65340000  0.95800000  1.0
  C  C179  1  0.63750000  0.62810000  0.86110000  1.0
  C  C180  1  0.59960000  0.64970000  0.67000000  1.0
  C  C181  1  0.55830000  0.62450000  0.56900000  1.0
  C  C182  1  0.55480000  0.57600000  0.66300000  1.0
  C  C183  1  0.59240000  0.55360000  0.85200000  1.0
  C  C184  1  0.63400000  0.57920000  0.95340000  1.0
  C  C185  1  0.67060000  0.55470000  0.14000000  1.0
  C  C186  1  0.71160000  0.58050000  0.23600000  1.0
  C  C187  1  0.74500000  0.44550000  0.80900000  1.0
  C  C188  1  0.79310000  0.43110000  0.81000000  1.0
  C  C189  1  0.82870000  0.46230000  0.68000000  1.0
  C  C190  1  0.81630000  0.50790000  0.54900000  1.0
  C  C191  1  0.76820000  0.52230000  0.54700000  1.0
  C  C192  1  0.73250000  0.49120000  0.67700000  1.0
  C  C193  1  0.80120000  0.38000000  0.95100000  1.0
  C  C194  1  0.21970000  0.39120000  0.42950000  1.0
  C  C195  1  0.28470000  0.37060000  0.14450000  1.0
  C  C196  1  0.32130000  0.34660000  0.95800000  1.0
  C  C197  1  0.36250000  0.37190000  0.86110000  1.0
  C  C198  1  0.40040000  0.35030000  0.67000000  1.0
  C  C199  1  0.44170000  0.37550000  0.56900000  1.0
  C  C200  1  0.44520000  0.42400000  0.66300000  1.0
  C  C201  1  0.40760000  0.44640000  0.85200000  1.0
  C  C202  1  0.36600000  0.42080000  0.95340000  1.0
  C  C203  1  0.32940000  0.44530000  0.14000000  1.0
  C  C204  1  0.28840000  0.41950000  0.23600000  1.0
  C  C205  1  0.25500000  0.55450000  0.80900000  1.0
  C  C206  1  0.20690000  0.56890000  0.81000000  1.0
  C  C207  1  0.17130000  0.53770000  0.68000000  1.0
  C  C208  1  0.18370000  0.49210000  0.54900000  1.0
  C  C209  1  0.23180000  0.47770000  0.54700000  1.0
  C  C210  1  0.26750000  0.50880000  0.67700000  1.0
  C  C211  1  0.19880000  0.62000000  0.95100000  1.0
  C  C212  1  0.10880000  0.71970000  0.07050000  1.0
  C  C213  1  0.12940000  0.78470000  0.35550000  1.0
  C  C214  1  0.15340000  0.82130000  0.54200000  1.0
  C  C215  1  0.12810000  0.86250000  0.63890000  1.0
  C  C216  1  0.14970000  0.90040000  0.83000000  1.0
  C  C217  1  0.12450000  0.94170000  0.93100000  1.0
  C  C218  1  0.07600000  0.94520000  0.83700000  1.0
  C  C219  1  0.05360000  0.90760000  0.64800000  1.0
  C  C220  1  0.07920000  0.86600000  0.54660000  1.0
  C  C221  1  0.05470000  0.82940000  0.36000000  1.0
  C  C222  1  0.08050000  0.78840000  0.26400000  1.0
  C  C223  1  0.94550000  0.75500000  0.69100000  1.0
  C  C224  1  0.93110000  0.70690000  0.69000000  1.0
  C  C225  1  0.96230000  0.67130000  0.82000000  1.0
  C  C226  1  0.00790000  0.68370000  0.95100000  1.0
  C  C227  1  0.02230000  0.73180000  0.95300000  1.0
  C  C228  1  0.99120000  0.76750000  0.82300000  1.0
  C  C229  1  0.88000000  0.69880000  0.54900000  1.0
  C  C230  1  0.89120000  0.28030000  0.07050000  1.0
  C  C231  1  0.87060000  0.21530000  0.35550000  1.0
  C  C232  1  0.84660000  0.17870000  0.54200000  1.0
  C  C233  1  0.87190000  0.13750000  0.63890000  1.0
  C  C234  1  0.85030000  0.09960000  0.83000000  1.0
  C  C235  1  0.87550000  0.05830000  0.93100000  1.0
  C  C236  1  0.92400000  0.05480000  0.83700000  1.0
  C  C237  1  0.94640000  0.09240000  0.64800000  1.0
  C  C238  1  0.92080000  0.13400000  0.54660000  1.0
  C  C239  1  0.94530000  0.17060000  0.36000000  1.0
  C  C240  1  0.91950000  0.21160000  0.26400000  1.0
  C  C241  1  0.05450000  0.24500000  0.69100000  1.0
  C  C242  1  0.06890000  0.29310000  0.69000000  1.0
  C  C243  1  0.03770000  0.32870000  0.82000000  1.0
  C  C244  1  0.99210000  0.31630000  0.95100000  1.0
  C  C245  1  0.97770000  0.26820000  0.95300000  1.0
  C  C246  1  0.00880000  0.23250000  0.82300000  1.0
  C  C247  1  0.12000000  0.30120000  0.54900000  1.0
  N  N248  1  0.26000000  0.14640000  0.77400000  1.0
  N  N249  1  0.25410000  0.06730000  0.91710000  1.0
  N  N250  1  0.74000000  0.85360000  0.77400000  1.0
  N  N251  1  0.74590000  0.93270000  0.91710000  1.0
  N  N252  1  0.64640000  0.24000000  0.72600000  1.0
  N  N253  1  0.56730000  0.24590000  0.58290000  1.0
  N  N254  1  0.35360000  0.76000000  0.72600000  1.0
  N  N255  1  0.43270000  0.75410000  0.58290000  1.0
  N  N256  1  0.76000000  0.64640000  0.27400000  1.0
  N  N257  1  0.75410000  0.56730000  0.41710000  1.0
  N  N258  1  0.24000000  0.35360000  0.27400000  1.0
  N  N259  1  0.24590000  0.43270000  0.41710000  1.0
  N  N260  1  0.14640000  0.74000000  0.22600000  1.0
  N  N261  1  0.06730000  0.74590000  0.08290000  1.0
  N  N262  1  0.85360000  0.26000000  0.22600000  1.0
  N  N263  1  0.93270000  0.25410000  0.08290000  1.0
  O  O264  1  0.27210000  0.85840000  0.62300000  1.0
  O  O265  1  0.33860000  0.85890000  0.29400000  1.0
  O  O266  1  0.28610000  0.24760000  0.35500000  1.0
  O  O267  1  0.34110000  0.87200000  0.64000000  1.0
  O  O268  1  0.72790000  0.14160000  0.62300000  1.0
  O  O269  1  0.66140000  0.14110000  0.29400000  1.0
  O  O270  1  0.71390000  0.75240000  0.35500000  1.0
  O  O271  1  0.65890000  0.12800000  0.64000000  1.0
  O  O272  1  0.35840000  0.22790000  0.87700000  1.0
  O  O273  1  0.35890000  0.16140000  0.20600000  1.0
  O  O274  1  0.74760000  0.21390000  0.14500000  1.0
  O  O275  1  0.37200000  0.15890000  0.86000000  1.0
  O  O276  1  0.64160000  0.77210000  0.87700000  1.0
  O  O277  1  0.64110000  0.83860000  0.20600000  1.0
  O  O278  1  0.25240000  0.78610000  0.14500000  1.0
  O  O279  1  0.62800000  0.84110000  0.86000000  1.0
  O  O280  1  0.77210000  0.35840000  0.12300000  1.0
  O  O281  1  0.83860000  0.35890000  0.79400000  1.0
  O  O282  1  0.78610000  0.74760000  0.85500000  1.0
  O  O283  1  0.84110000  0.37200000  0.14000000  1.0
  O  O284  1  0.22790000  0.64160000  0.12300000  1.0
  O  O285  1  0.16140000  0.64110000  0.79400000  1.0
  O  O286  1  0.21390000  0.25240000  0.85500000  1.0
  O  O287  1  0.15890000  0.62800000  0.14000000  1.0
  O  O288  1  0.85840000  0.72790000  0.37700000  1.0
  O  O289  1  0.85890000  0.66140000  0.70600000  1.0
  O  O290  1  0.24760000  0.71390000  0.64500000  1.0
  O  O291  1  0.87200000  0.65890000  0.36000000  1.0
  O  O292  1  0.14160000  0.27210000  0.37700000  1.0
  O  O293  1  0.14110000  0.33860000  0.70600000  1.0
  O  O294  1  0.75240000  0.28610000  0.64500000  1.0
  O  O295  1  0.12800000  0.34110000  0.36000000  1.0
