# generated using pymatgen
data_Ti6Cu2P2H43C36Br2(NO9)2
_symmetry_space_group_name_H-M   'P 1'
_cell_length_a   13.56000000
_cell_length_b   25.68300000
_cell_length_c   26.59000000
_cell_angle_alpha   99.18500000
_cell_angle_beta   104.31400000
_cell_angle_gamma   104.89500000
_symmetry_Int_Tables_number   1
_chemical_formula_structural   Ti6Cu2P2H43C36Br2(NO9)2
_chemical_formula_sum   'Ti24 Cu8 P8 H172 C144 Br8 N8 O72'
_cell_volume   8421.41535822
_cell_formula_units_Z   4
loop_
 _symmetry_equiv_pos_site_id
 _symmetry_equiv_pos_as_xyz
  1  'x, y, z'
loop_
 _atom_site_type_symbol
 _atom_site_label
 _atom_site_symmetry_multiplicity
 _atom_site_fract_x
 _atom_site_fract_y
 _atom_site_fract_z
 _atom_site_occupancy
  Ti  Ti0  1  0.47669000  0.37630000  0.44799000  1.0
  Ti  Ti1  1  0.33455000  0.42330000  0.50717000  1.0
  Ti  Ti2  1  0.63278000  0.46473000  0.54864000  1.0
  Ti  Ti3  1  0.31037000  0.04119000  0.94473000  1.0
  Ti  Ti4  1  0.51281000  0.02710000  0.91846000  1.0
  Ti  Ti5  1  0.50046000  0.09810000  0.05012000  1.0
  Ti  Ti6  1  0.62849000  0.07706000  0.56965000  1.0
  Ti  Ti7  1  0.70680000  0.05662000  0.47041000  1.0
  Ti  Ti8  1  0.63162000  0.94058000  0.49578000  1.0
  Ti  Ti9  1  0.93299000  0.53095000  0.88917000  1.0
  Ti  Ti10  1  0.14787000  0.53265000  0.96628000  1.0
  Ti  Ti11  1  0.89258000  0.41444000  0.91636000  1.0
  Ti  Ti12  1  0.52331000  0.62370000  0.55201000  1.0
  Ti  Ti13  1  0.66545000  0.57670000  0.49283000  1.0
  Ti  Ti14  1  0.36722000  0.53527000  0.45136000  1.0
  Ti  Ti15  1  0.68963000  0.95881000  0.05527000  1.0
  Ti  Ti16  1  0.48719000  0.97290000  0.08154000  1.0
  Ti  Ti17  1  0.49954000  0.90190000  0.94988000  1.0
  Ti  Ti18  1  0.37151000  0.92294000  0.43035000  1.0
  Ti  Ti19  1  0.29320000  0.94338000  0.52959000  1.0
  Ti  Ti20  1  0.36838000  0.05942000  0.50422000  1.0
  Ti  Ti21  1  0.06701000  0.46905000  0.11083000  1.0
  Ti  Ti22  1  0.85213000  0.46735000  0.03372000  1.0
  Ti  Ti23  1  0.10742000  0.58556000  0.08364000  1.0
  Cu  Cu24  1  0.35319000  0.27126000  0.71662000  1.0
  Cu  Cu25  1  0.30996000  0.26069000  0.80747000  1.0
  Cu  Cu26  1  0.17487000  0.19505000  0.70784000  1.0
  Cu  Cu27  1  0.16511000  0.29240000  0.74150000  1.0
  Cu  Cu28  1  0.64681000  0.72874000  0.28338000  1.0
  Cu  Cu29  1  0.69004000  0.73931000  0.19253000  1.0
  Cu  Cu30  1  0.82513000  0.80495000  0.29216000  1.0
  Cu  Cu31  1  0.83489000  0.70760000  0.25850000  1.0
  P  P32  1  0.49618000  0.51856000  0.61188000  1.0
  P  P33  1  0.71419000  0.08187000  0.02528000  1.0
  P  P34  1  0.11313000  0.41524000  0.99919000  1.0
  P  P35  1  0.54329000  0.95893000  0.59826000  1.0
  P  P36  1  0.50382000  0.48144000  0.38812000  1.0
  P  P37  1  0.28581000  0.91813000  0.97472000  1.0
  P  P38  1  0.88687000  0.58476000  0.00081000  1.0
  P  P39  1  0.45671000  0.04107000  0.40174000  1.0
  H  H40  1  0.37580000  0.32800000  0.63010000  1.0
  H  H41  1  0.53750000  0.25830000  0.54530000  1.0
  H  H42  1  0.56130000  0.20230000  0.60660000  1.0
  H  H43  1  0.49380000  0.21340000  0.67830000  1.0
  H  H44  1  0.52200000  0.61140000  0.69370000  1.0
  H  H45  1  0.50190000  0.62290000  0.77950000  1.0
  H  H46  1  0.46280000  0.54780000  0.81600000  1.0
  H  H47  1  0.42920000  0.46070000  0.76660000  1.0
  H  H48  1  0.45020000  0.44800000  0.68180000  1.0
  H  H49  1  0.12080000  0.26210000  0.37440000  1.0
  H  H50  1  0.17120000  0.28250000  0.43800000  1.0
  H  H51  1  0.23990000  0.26240000  0.40230000  1.0
  H  H52  1  0.24910000  0.39720000  0.36610000  1.0
  H  H53  1  0.13340000  0.35160000  0.34260000  1.0
  H  H54  1  0.23480000  0.33820000  0.32980000  1.0
  H  H55  1  0.80260000  0.34320000  0.47410000  1.0
  H  H56  1  0.67820000  0.31660000  0.46750000  1.0
  H  H57  1  0.75780000  0.35520000  0.52370000  1.0
  H  H58  1  0.74470000  0.46460000  0.44590000  1.0
  H  H59  1  0.80140000  0.42200000  0.42450000  1.0
  H  H60  1  0.84660000  0.45650000  0.48550000  1.0
  H  H61  1  0.51330000  0.33680000  0.89010000  1.0
  H  H62  1  0.64060000  0.33390000  0.96320000  1.0
  H  H63  1  0.61380000  0.25450000  0.99730000  1.0
  H  H64  1  0.33830000  0.18490000  0.87850000  1.0
  H  H65  1  0.81900000  0.14740000  0.96660000  1.0
  H  H66  1  0.98130000  0.21410000  0.98290000  1.0
  H  H67  1  0.05550000  0.21580000  0.12950000  1.0
  H  H68  1  0.89040000  0.14230000  0.11550000  1.0
  H  H69  1  0.29320000  0.91890000  0.84490000  1.0
  H  H70  1  0.34080000  0.93360000  0.79770000  1.0
  H  H71  1  0.21420000  0.91490000  0.78770000  1.0
  H  H72  1  0.23390000  0.00590000  0.76020000  1.0
  H  H73  1  0.34940000  0.04690000  0.79590000  1.0
  H  H74  1  0.24470000  0.05180000  0.81130000  1.0
  H  H75  1  0.20160000  0.14910000  0.06880000  1.0
  H  H76  1  0.22690000  0.14730000  0.01300000  1.0
  H  H77  1  0.32240000  0.17230000  0.06790000  1.0
  H  H78  1  0.24230000  0.01360000  0.05510000  1.0
  H  H79  1  0.13940000  0.03400000  0.05160000  1.0
  H  H80  1  0.23690000  0.05440000  0.10580000  1.0
  H  H81  1  0.12350000  0.09640000  0.74790000  1.0
  H  H82  1  0.01840000  0.00440000  0.72150000  1.0
  H  H83  1  0.90050000  0.97170000  0.63450000  1.0
  H  H84  1  0.99440000  0.12460000  0.61050000  1.0
  H  H85  1  0.73720000  0.95080000  0.66420000  1.0
  H  H86  1  0.78310000  0.92470000  0.74550000  1.0
  H  H87  1  0.66710000  0.89750000  0.78810000  1.0
  H  H88  1  0.49930000  0.89950000  0.75510000  1.0
  H  H89  1  0.44060000  0.91900000  0.67270000  1.0
  H  H90  1  0.66380000  0.90590000  0.39360000  1.0
  H  H91  1  0.55500000  0.94620000  0.34860000  1.0
  H  H92  1  0.62880000  0.92780000  0.31520000  1.0
  H  H93  1  0.65550000  0.99170000  0.34370000  1.0
  H  H94  1  0.81730000  0.93230000  0.36690000  1.0
  H  H95  1  0.84220000  0.94040000  0.43020000  1.0
  H  H96  1  0.84840000  0.99290000  0.40450000  1.0
  H  H97  1  0.70060000  0.18990000  0.55810000  1.0
  H  H98  1  0.58480000  0.16930000  0.47860000  1.0
  H  H99  1  0.68070000  0.18370000  0.45300000  1.0
  H  H100  1  0.66650000  0.23090000  0.49520000  1.0
  H  H101  1  0.86310000  0.24430000  0.55390000  1.0
  H  H102  1  0.88040000  0.18900000  0.52540000  1.0
  H  H103  1  0.87060000  0.19610000  0.58470000  1.0
  H  H104  1  0.04050000  0.34960000  0.79810000  1.0
  H  H105  1  0.08220000  0.50050000  0.76670000  1.0
  H  H106  1  0.17390000  0.47500000  0.70760000  1.0
  H  H107  1  0.20030000  0.39010000  0.69840000  1.0
  H  H108  1  0.13160000  0.33300000  0.91900000  1.0
  H  H109  1  0.22230000  0.26710000  0.92000000  1.0
  H  H110  1  0.33410000  0.26220000  0.99700000  1.0
  H  H111  1  0.34940000  0.31930000  0.07650000  1.0
  H  H112  1  0.25450000  0.38270000  0.07800000  1.0
  H  H113  1  0.20600000  0.66720000  0.86410000  1.0
  H  H114  1  0.10360000  0.61370000  0.83550000  1.0
  H  H115  1  0.21540000  0.60660000  0.86550000  1.0
  H  H116  1  0.10850000  0.66310000  0.97820000  1.0
  H  H117  1  0.07010000  0.68790000  0.92800000  1.0
  H  H118  1  0.19440000  0.70630000  0.96100000  1.0
  H  H119  1  0.67540000  0.40580000  0.85910000  1.0
  H  H120  1  0.66950000  0.48150000  0.91200000  1.0
  H  H121  1  0.57110000  0.46040000  0.85820000  1.0
  H  H122  1  0.67000000  0.51380000  0.86530000  1.0
  H  H123  1  0.72300000  0.40170000  0.78260000  1.0
  H  H124  1  0.70560000  0.46030000  0.77830000  1.0
  H  H125  1  0.60590000  0.40810000  0.77290000  1.0
  H  H126  1  0.62420000  0.67200000  0.36990000  1.0
  H  H127  1  0.46250000  0.74170000  0.45470000  1.0
  H  H128  1  0.43870000  0.79770000  0.39340000  1.0
  H  H129  1  0.50620000  0.78660000  0.32170000  1.0
  H  H130  1  0.47800000  0.38860000  0.30630000  1.0
  H  H131  1  0.49810000  0.37710000  0.22050000  1.0
  H  H132  1  0.53720000  0.45220000  0.18400000  1.0
  H  H133  1  0.57080000  0.53930000  0.23340000  1.0
  H  H134  1  0.54980000  0.55200000  0.31820000  1.0
  H  H135  1  0.87920000  0.73790000  0.62560000  1.0
  H  H136  1  0.82880000  0.71750000  0.56200000  1.0
  H  H137  1  0.76010000  0.73760000  0.59770000  1.0
  H  H138  1  0.75090000  0.60280000  0.63390000  1.0
  H  H139  1  0.86660000  0.64840000  0.65740000  1.0
  H  H140  1  0.76520000  0.66180000  0.67020000  1.0
  H  H141  1  0.19740000  0.65680000  0.52590000  1.0
  H  H142  1  0.32180000  0.68340000  0.53250000  1.0
  H  H143  1  0.24220000  0.64480000  0.47630000  1.0
  H  H144  1  0.25530000  0.53540000  0.55410000  1.0
  H  H145  1  0.19860000  0.57800000  0.57550000  1.0
  H  H146  1  0.15340000  0.54350000  0.51450000  1.0
  H  H147  1  0.48670000  0.66320000  0.10990000  1.0
  H  H148  1  0.35940000  0.66610000  0.03680000  1.0
  H  H149  1  0.38620000  0.74550000  0.00270000  1.0
  H  H150  1  0.66170000  0.81510000  0.12150000  1.0
  H  H151  1  0.18100000  0.85260000  0.03340000  1.0
  H  H152  1  0.01870000  0.78590000  0.01710000  1.0
  H  H153  1  0.94450000  0.78420000  0.87050000  1.0
  H  H154  1  0.10960000  0.85770000  0.88450000  1.0
  H  H155  1  0.70680000  0.08110000  0.15510000  1.0
  H  H156  1  0.65920000  0.06640000  0.20230000  1.0
  H  H157  1  0.78580000  0.08510000  0.21230000  1.0
  H  H158  1  0.76610000  0.99410000  0.23980000  1.0
  H  H159  1  0.65060000  0.95310000  0.20410000  1.0
  H  H160  1  0.75530000  0.94820000  0.18870000  1.0
  H  H161  1  0.79840000  0.85090000  0.93120000  1.0
  H  H162  1  0.77310000  0.85270000  0.98700000  1.0
  H  H163  1  0.67760000  0.82770000  0.93210000  1.0
  H  H164  1  0.75770000  0.98640000  0.94490000  1.0
  H  H165  1  0.86060000  0.96600000  0.94840000  1.0
  H  H166  1  0.76310000  0.94560000  0.89420000  1.0
  H  H167  1  0.87650000  0.90360000  0.25210000  1.0
  H  H168  1  0.98160000  0.99560000  0.27850000  1.0
  H  H169  1  0.09950000  0.02830000  0.36550000  1.0
  H  H170  1  0.00560000  0.87540000  0.38950000  1.0
  H  H171  1  0.26280000  0.04920000  0.33580000  1.0
  H  H172  1  0.21690000  0.07530000  0.25450000  1.0
  H  H173  1  0.33290000  0.10250000  0.21190000  1.0
  H  H174  1  0.50070000  0.10050000  0.24490000  1.0
  H  H175  1  0.55940000  0.08100000  0.32730000  1.0
  H  H176  1  0.33620000  0.09410000  0.60640000  1.0
  H  H177  1  0.44500000  0.05380000  0.65140000  1.0
  H  H178  1  0.37120000  0.07220000  0.68480000  1.0
  H  H179  1  0.34450000  0.00830000  0.65630000  1.0
  H  H180  1  0.18270000  0.06770000  0.63310000  1.0
  H  H181  1  0.15780000  0.05960000  0.56980000  1.0
  H  H182  1  0.15160000  0.00710000  0.59550000  1.0
  H  H183  1  0.29940000  0.81010000  0.44190000  1.0
  H  H184  1  0.41520000  0.83070000  0.52140000  1.0
  H  H185  1  0.31930000  0.81630000  0.54700000  1.0
  H  H186  1  0.33350000  0.76910000  0.50480000  1.0
  H  H187  1  0.13690000  0.75570000  0.44610000  1.0
  H  H188  1  0.11960000  0.81100000  0.47460000  1.0
  H  H189  1  0.12940000  0.80390000  0.41530000  1.0
  H  H190  1  0.95950000  0.65040000  0.20190000  1.0
  H  H191  1  0.91780000  0.49950000  0.23330000  1.0
  H  H192  1  0.82610000  0.52500000  0.29240000  1.0
  H  H193  1  0.79970000  0.60990000  0.30160000  1.0
  H  H194  1  0.86840000  0.66700000  0.08100000  1.0
  H  H195  1  0.77770000  0.73290000  0.08000000  1.0
  H  H196  1  0.66590000  0.73780000  0.00300000  1.0
  H  H197  1  0.65060000  0.68070000  0.92350000  1.0
  H  H198  1  0.74550000  0.61730000  0.92200000  1.0
  H  H199  1  0.79400000  0.33280000  0.13590000  1.0
  H  H200  1  0.89640000  0.38630000  0.16450000  1.0
  H  H201  1  0.78460000  0.39340000  0.13450000  1.0
  H  H202  1  0.89150000  0.33690000  0.02180000  1.0
  H  H203  1  0.92990000  0.31210000  0.07200000  1.0
  H  H204  1  0.80560000  0.29370000  0.03900000  1.0
  H  H205  1  0.32460000  0.59420000  0.14090000  1.0
  H  H206  1  0.33050000  0.51850000  0.08800000  1.0
  H  H207  1  0.42890000  0.53960000  0.14180000  1.0
  H  H208  1  0.33000000  0.48620000  0.13470000  1.0
  H  H209  1  0.27700000  0.59830000  0.21740000  1.0
  H  H210  1  0.29440000  0.53970000  0.22170000  1.0
  H  H211  1  0.39410000  0.59190000  0.22710000  1.0
  C  C212  1  0.41520000  0.30283000  0.62563000  1.0
  C  C213  1  0.45510000  0.29955000  0.58204000  1.0
  C  C214  1  0.50990000  0.26167000  0.57482000  1.0
  C  C215  1  0.52440000  0.22871000  0.61094000  1.0
  C  C216  1  0.48360000  0.23562000  0.65329000  1.0
  C  C217  1  0.43150000  0.33337000  0.54264000  1.0
  C  C218  1  0.48700000  0.52825000  0.67870000  1.0
  C  C219  1  0.50320000  0.57999000  0.70812000  1.0
  C  C220  1  0.49210000  0.58690000  0.75944000  1.0
  C  C221  1  0.46750000  0.54260000  0.78061000  1.0
  C  C222  1  0.44970000  0.49187000  0.75209000  1.0
  C  C223  1  0.46090000  0.48434000  0.70133000  1.0
  C  C224  1  0.22850000  0.33824000  0.39896000  1.0
  C  C225  1  0.18670000  0.28170000  0.40380000  1.0
  C  C226  1  0.21040000  0.35750000  0.35690000  1.0
  C  C227  1  0.71960000  0.39864000  0.46826000  1.0
  C  C228  1  0.74140000  0.34920000  0.48480000  1.0
  C  C229  1  0.78180000  0.43780000  0.45530000  1.0
  C  C230  1  0.50260000  0.30400000  0.90290000  1.0
  C  C231  1  0.57810000  0.30293000  0.94656000  1.0
  C  C232  1  0.56250000  0.25617000  0.96645000  1.0
  C  C233  1  0.47300000  0.21253000  0.94146000  1.0
  C  C234  1  0.40020000  0.21586000  0.89635000  1.0
  C  C235  1  0.44960000  0.16104000  0.96205000  1.0
  C  C236  1  0.84000000  0.13508000  0.03765000  1.0
  C  C237  1  0.86750000  0.15860000  0.00180000  1.0
  C  C238  1  0.96580000  0.20000000  0.01190000  1.0
  C  C239  1  0.03250000  0.21900000  0.05620000  1.0
  C  C240  1  0.00760000  0.20050000  0.09430000  1.0
  C  C241  1  0.90640000  0.15560000  0.08620000  1.0
  C  C242  1  0.28890000  0.98730000  0.82938000  1.0
  C  C243  1  0.28400000  0.93540000  0.81390000  1.0
  C  C244  1  0.27840000  0.02600000  0.79659000  1.0
  C  C245  1  0.26480000  0.09020000  0.04910000  1.0
  C  C246  1  0.25300000  0.14390000  0.04970000  1.0
  C  C247  1  0.21730000  0.04470000  0.06670000  1.0
  C  C248  1  0.07400000  0.08311000  0.71296000  1.0
  C  C249  1  0.01260000  0.02834000  0.69782000  1.0
  C  C250  1  0.94240000  0.00969000  0.64695000  1.0
  C  C251  1  0.93200000  0.04523000  0.61385000  1.0
  C  C252  1  0.99860000  0.09958000  0.63309000  1.0
  C  C253  1  0.84920000  0.02656000  0.56080000  1.0
  C  C254  1  0.58250000  0.93849000  0.65956000  1.0
  C  C255  1  0.68440000  0.93960000  0.68140000  1.0
  C  C256  1  0.71120000  0.92370000  0.73060000  1.0
  C  C257  1  0.64590000  0.90860000  0.75570000  1.0
  C  C258  1  0.54880000  0.90870000  0.73570000  1.0
  C  C259  1  0.51390000  0.92180000  0.68690000  1.0
  C  C260  1  0.69490000  0.94572000  0.39363000  1.0
  C  C261  1  0.62840000  0.95350000  0.34660000  1.0
  C  C262  1  0.81070000  0.95350000  0.39930000  1.0
  C  C263  1  0.72570000  0.17755000  0.52719000  1.0
  C  C264  1  0.65940000  0.19138000  0.48530000  1.0
  C  C265  1  0.84540000  0.20404000  0.54980000  1.0
  C  C266  1  0.06890000  0.37592000  0.77989000  1.0
  C  C267  1  0.05200000  0.42690000  0.78846000  1.0
  C  C268  1  0.09200000  0.46496000  0.76163000  1.0
  C  C269  1  0.14660000  0.44997000  0.72723000  1.0
  C  C270  1  0.16110000  0.39932000  0.72171000  1.0
  C  C271  1  0.99440000  0.44117000  0.82703000  1.0
  C  C272  1  0.18390000  0.36510000  0.99790000  1.0
  C  C273  1  0.17550000  0.33071000  0.95202000  1.0
  C  C274  1  0.23090000  0.29168000  0.95264000  1.0
  C  C275  1  0.29510000  0.28811000  0.99751000  1.0
  C  C276  1  0.30420000  0.32174000  0.04396000  1.0
  C  C277  1  0.24840000  0.35984000  0.04481000  1.0
  C  C278  1  0.13950000  0.63299000  0.91540000  1.0
  C  C279  1  0.16850000  0.62990000  0.86610000  1.0
  C  C280  1  0.12730000  0.67550000  0.94790000  1.0
  C  C281  1  0.70190000  0.44195000  0.84976000  1.0
  C  C282  1  0.64880000  0.47730000  0.87322000  1.0
  C  C283  1  0.68250000  0.42671000  0.79083000  1.0
  C  C284  1  0.58480000  0.69717000  0.37437000  1.0
  C  C285  1  0.54490000  0.70045000  0.41796000  1.0
  C  C286  1  0.49010000  0.73833000  0.42518000  1.0
  C  C287  1  0.47560000  0.77129000  0.38906000  1.0
  C  C288  1  0.51640000  0.76438000  0.34671000  1.0
  C  C289  1  0.56850000  0.66666667  0.45736000  1.0
  C  C290  1  0.51300000  0.47175000  0.32130000  1.0
  C  C291  1  0.49680000  0.42001000  0.29188000  1.0
  C  C292  1  0.50790000  0.41310000  0.24056000  1.0
  C  C293  1  0.53250000  0.45740000  0.21939000  1.0
  C  C294  1  0.55030000  0.50813000  0.24791000  1.0
  C  C295  1  0.53910000  0.51566000  0.29867000  1.0
  C  C296  1  0.77150000  0.66176000  0.60104000  1.0
  C  C297  1  0.81330000  0.71830000  0.59620000  1.0
  C  C298  1  0.78960000  0.64250000  0.64310000  1.0
  C  C299  1  0.28040000  0.60136000  0.53174000  1.0
  C  C300  1  0.25860000  0.65080000  0.51520000  1.0
  C  C301  1  0.21820000  0.56220000  0.54470000  1.0
  C  C302  1  0.49740000  0.69600000  0.09710000  1.0
  C  C303  1  0.42190000  0.69707000  0.05344000  1.0
  C  C304  1  0.43750000  0.74383000  0.03355000  1.0
  C  C305  1  0.52700000  0.78747000  0.05854000  1.0
  C  C306  1  0.59980000  0.78414000  0.10365000  1.0
  C  C307  1  0.55040000  0.83896000  0.03795000  1.0
  C  C308  1  0.16000000  0.86492000  0.96235000  1.0
  C  C309  1  0.13250000  0.84140000  0.99820000  1.0
  C  C310  1  0.03420000  0.80000000  0.98810000  1.0
  C  C311  1  0.96750000  0.78100000  0.94380000  1.0
  C  C312  1  0.99240000  0.79950000  0.90570000  1.0
  C  C313  1  0.09360000  0.84440000  0.91380000  1.0
  C  C314  1  0.71110000  0.01270000  0.17062000  1.0
  C  C315  1  0.71600000  0.06460000  0.18610000  1.0
  C  C316  1  0.72160000  0.97400000  0.20341000  1.0
  C  C317  1  0.73520000  0.90980000  0.95090000  1.0
  C  C318  1  0.74700000  0.85610000  0.95030000  1.0
  C  C319  1  0.78270000  0.95530000  0.93330000  1.0
  C  C320  1  0.92600000  0.91689000  0.28704000  1.0
  C  C321  1  0.98740000  0.97166000  0.30218000  1.0
  C  C322  1  0.05760000  0.99031000  0.35305000  1.0
  C  C323  1  0.06800000  0.95477000  0.38615000  1.0
  C  C324  1  0.00140000  0.90042000  0.36691000  1.0
  C  C325  1  0.15080000  0.97344000  0.43920000  1.0
  C  C326  1  0.41750000  0.06151000  0.34044000  1.0
  C  C327  1  0.31560000  0.06040000  0.31860000  1.0
  C  C328  1  0.28880000  0.07630000  0.26940000  1.0
  C  C329  1  0.35410000  0.09140000  0.24430000  1.0
  C  C330  1  0.45120000  0.09130000  0.26430000  1.0
  C  C331  1  0.48610000  0.07820000  0.31310000  1.0
  C  C332  1  0.30510000  0.05428000  0.60637000  1.0
  C  C333  1  0.37160000  0.04650000  0.65340000  1.0
  C  C334  1  0.18930000  0.04650000  0.60070000  1.0
  C  C335  1  0.27430000  0.82245000  0.47281000  1.0
  C  C336  1  0.34060000  0.80862000  0.51470000  1.0
  C  C337  1  0.15460000  0.79596000  0.45020000  1.0
  C  C338  1  0.93110000  0.62408000  0.22011000  1.0
  C  C339  1  0.94800000  0.57310000  0.21154000  1.0
  C  C340  1  0.90800000  0.53504000  0.23837000  1.0
  C  C341  1  0.85340000  0.55003000  0.27277000  1.0
  C  C342  1  0.83890000  0.60068000  0.27829000  1.0
  C  C343  1  0.00560000  0.55883000  0.17297000  1.0
  C  C344  1  0.81610000  0.63490000  0.00210000  1.0
  C  C345  1  0.82450000  0.66929000  0.04798000  1.0
  C  C346  1  0.76910000  0.70832000  0.04736000  1.0
  C  C347  1  0.70490000  0.71189000  0.00249000  1.0
  C  C348  1  0.69580000  0.67826000  0.95604000  1.0
  C  C349  1  0.75160000  0.64016000  0.95519000  1.0
  C  C350  1  0.86050000  0.36701000  0.08460000  1.0
  C  C351  1  0.83150000  0.37010000  0.13390000  1.0
  C  C352  1  0.87270000  0.32450000  0.05210000  1.0
  C  C353  1  0.29810000  0.55805000  0.15024000  1.0
  C  C354  1  0.35120000  0.52270000  0.12678000  1.0
  C  C355  1  0.31750000  0.57329000  0.20917000  1.0
  Br  Br356  1  0.34927000  0.18118000  0.74602000  1.0
  Br  Br357  1  0.14613000  0.25434000  0.64711000  1.0
  Br  Br358  1  0.38379000  0.35092000  0.78571000  1.0
  Br  Br359  1  0.11777000  0.23166000  0.79887000  1.0
  Br  Br360  1  0.65073000  0.81882000  0.25398000  1.0
  Br  Br361  1  0.85387000  0.74566000  0.35289000  1.0
  Br  Br362  1  0.61621000  0.64908000  0.21429000  1.0
  Br  Br363  1  0.88223000  0.76834000  0.20113000  1.0
  N  N364  1  0.42980000  0.27233000  0.66118000  1.0
  N  N365  1  0.41410000  0.26156000  0.87680000  1.0
  N  N366  1  0.06870000  0.11829000  0.68241000  1.0
  N  N367  1  0.12360000  0.36187000  0.74702000  1.0
  N  N368  1  0.57020000  0.72767000  0.33882000  1.0
  N  N369  1  0.58590000  0.73844000  0.12320000  1.0
  N  N370  1  0.93130000  0.88171000  0.31759000  1.0
  N  N371  1  0.87640000  0.63813000  0.25298000  1.0
  O  O372  1  0.47159000  0.32829000  0.50429000  1.0
  O  O373  1  0.37466000  0.36345000  0.54984000  1.0
  O  O374  1  0.58791000  0.49550000  0.60917000  1.0
  O  O375  1  0.38908000  0.47874000  0.57563000  1.0
  O  O376  1  0.63058000  0.40830000  0.48397000  1.0
  O  O377  1  0.51862000  0.57636000  0.60121000  1.0
  O  O378  1  0.32471000  0.36803000  0.44117000  1.0
  O  O379  1  0.30494000  0.47344000  0.46668000  1.0
  O  O380  1  0.48594000  0.43622000  0.50745000  1.0
  O  O381  1  0.36725000  0.12047000  0.93247000  1.0
  O  O382  1  0.50931000  0.16165000  0.00602000  1.0
  O  O383  1  0.65888000  0.06670000  0.96527000  1.0
  O  O384  1  0.65051000  0.10642000  0.05687000  1.0
  O  O385  1  0.35418000  0.01315000  0.88372000  1.0
  O  O386  1  0.33899000  0.07913000  0.02017000  1.0
  O  O387  1  0.48589000  0.04190000  0.08629000  1.0
  O  O388  1  0.46268000  0.05069000  0.97656000  1.0
  O  O389  1  0.74109000  0.03303000  0.04444000  1.0
  O  O390  1  0.50503000  0.09033000  0.55252000  1.0
  O  O391  1  0.78736000  0.97814000  0.55053000  1.0
  O  O392  1  0.84450000  0.06001000  0.53141000  1.0
  O  O393  1  0.42182000  0.94397000  0.58178000  1.0
  O  O394  1  0.59653000  0.02129000  0.61056000  1.0
  O  O395  1  0.58140000  0.92728000  0.55775000  1.0
  O  O396  1  0.69879000  0.11804000  0.52223000  1.0
  O  O397  1  0.68751000  0.97737000  0.44232000  1.0
  O  O398  1  0.63071000  0.01903000  0.51535000  1.0
  O  O399  1  0.96350000  0.40613000  0.85188000  1.0
  O  O400  1  0.98175000  0.48893000  0.83148000  1.0
  O  O401  1  0.10677000  0.42852000  0.05585000  1.0
  O  O402  1  0.17675000  0.46691000  0.98647000  1.0
  O  O403  1  0.00332000  0.38842000  0.95788000  1.0
  O  O404  1  0.81659000  0.46085000  0.87670000  1.0
  O  O405  1  0.08332000  0.57786000  0.91913000  1.0
  O  O406  1  0.16970000  0.57546000  0.02944000  1.0
  O  O407  1  0.00114000  0.48931000  0.93626000  1.0
  O  O408  1  0.52841000  0.67171000  0.49571000  1.0
  O  O409  1  0.62534000  0.63655000  0.45016000  1.0
  O  O410  1  0.41209000  0.50450000  0.39083000  1.0
  O  O411  1  0.61092000  0.52126000  0.42437000  1.0
  O  O412  1  0.36942000  0.59170000  0.51603000  1.0
  O  O413  1  0.48138000  0.42364000  0.39879000  1.0
  O  O414  1  0.67529000  0.63197000  0.55883000  1.0
  O  O415  1  0.69506000  0.52656000  0.53332000  1.0
  O  O416  1  0.51406000  0.56378000  0.49255000  1.0
  O  O417  1  0.63275000  0.87953000  0.06753000  1.0
  O  O418  1  0.49069000  0.83835000  0.99398000  1.0
  O  O419  1  0.34112000  0.93330000  0.03473000  1.0
  O  O420  1  0.34949000  0.89358000  0.94313000  1.0
  O  O421  1  0.64582000  0.98685000  0.11628000  1.0
  O  O422  1  0.66101000  0.92087000  0.97983000  1.0
  O  O423  1  0.51411000  0.95810000  0.91371000  1.0
  O  O424  1  0.53732000  0.94931000  0.02344000  1.0
  O  O425  1  0.25891000  0.96697000  0.95556000  1.0
  O  O426  1  0.49497000  0.90967000  0.44748000  1.0
  O  O427  1  0.21264000  0.02186000  0.44947000  1.0
  O  O428  1  0.15550000  0.93999000  0.46859000  1.0
  O  O429  1  0.57818000  0.05603000  0.41822000  1.0
  O  O430  1  0.40347000  0.97871000  0.38944000  1.0
  O  O431  1  0.41860000  0.07272000  0.44225000  1.0
  O  O432  1  0.30121000  0.88196000  0.47777000  1.0
  O  O433  1  0.31249000  0.02263000  0.55768000  1.0
  O  O434  1  0.36929000  0.98097000  0.48465000  1.0
  O  O435  1  0.03650000  0.59387000  0.14812000  1.0
  O  O436  1  0.01825000  0.51107000  0.16852000  1.0
  O  O437  1  0.89323000  0.57148000  0.94415000  1.0
  O  O438  1  0.82325000  0.53309000  0.01353000  1.0
  O  O439  1  0.99668000  0.61158000  0.04212000  1.0
  O  O440  1  0.18341000  0.53915000  0.12330000  1.0
  O  O441  1  0.91668000  0.42214000  0.08087000  1.0
  O  O442  1  0.83030000  0.42454000  0.97056000  1.0
  O  O443  1  0.99886000  0.51069000  0.06374000  1.0
