# generated using pymatgen
data_V2P2H5C4O11
_symmetry_space_group_name_H-M   'P 1'
_cell_length_a   7.04790000
_cell_length_b   15.30700000
_cell_length_c   17.53700000
_cell_angle_alpha   90.00000000
_cell_angle_beta   90.00000000
_cell_angle_gamma   90.00000000
_symmetry_Int_Tables_number   1
_chemical_formula_structural   V2P2H5C4O11
_chemical_formula_sum   'V8 P8 H20 C16 O44'
_cell_volume   1891.93023435
_cell_formula_units_Z   4
loop_
 _symmetry_equiv_pos_site_id
 _symmetry_equiv_pos_as_xyz
  1  'x, y, z'
loop_
 _atom_site_type_symbol
 _atom_site_label
 _atom_site_symmetry_multiplicity
 _atom_site_fract_x
 _atom_site_fract_y
 _atom_site_fract_z
 _atom_site_occupancy
  V  V0  1  0.25449000  0.25000000  0.25000000  1.0
  V  V1  1  0.24551000  0.75000000  0.25000000  1.0
  V  V2  1  0.74551000  0.75000000  0.75000000  1.0
  V  V3  1  0.75449000  0.25000000  0.75000000  1.0
  V  V4  1  0.00000000  0.00000000  0.50000000  1.0
  V  V5  1  0.50000000  0.00000000  0.50000000  1.0
  V  V6  1  0.50000000  0.50000000  0.00000000  1.0
  V  V7  1  0.00000000  0.50000000  0.00000000  1.0
  P  P8  1  0.25542000  0.13521000  0.40046000  1.0
  P  P9  1  0.24458000  0.86479000  0.40046000  1.0
  P  P10  1  0.24458000  0.63521000  0.09954000  1.0
  P  P11  1  0.25542000  0.36479000  0.09954000  1.0
  P  P12  1  0.74458000  0.86479000  0.59954000  1.0
  P  P13  1  0.75542000  0.13521000  0.59954000  1.0
  P  P14  1  0.75542000  0.36479000  0.90046000  1.0
  P  P15  1  0.74458000  0.63521000  0.90046000  1.0
  H  H16  1  0.05110000  0.24990000  0.42230000  1.0
  H  H17  1  0.18550000  0.23770000  0.49240000  1.0
  H  H18  1  0.44890000  0.75010000  0.42230000  1.0
  H  H19  1  0.31450000  0.76230000  0.49240000  1.0
  H  H20  1  0.44890000  0.74990000  0.07770000  1.0
  H  H21  1  0.31450000  0.73770000  0.00760000  1.0
  H  H22  1  0.05110000  0.25010000  0.07770000  1.0
  H  H23  1  0.18550000  0.26230000  0.00760000  1.0
  H  H24  1  0.94890000  0.75010000  0.57770000  1.0
  H  H25  1  0.81450000  0.76230000  0.50760000  1.0
  H  H26  1  0.55110000  0.24990000  0.57770000  1.0
  H  H27  1  0.68550000  0.23770000  0.50760000  1.0
  H  H28  1  0.55110000  0.25010000  0.92230000  1.0
  H  H29  1  0.68550000  0.26230000  0.99240000  1.0
  H  H30  1  0.94890000  0.74990000  0.92230000  1.0
  H  H31  1  0.81450000  0.73770000  0.99240000  1.0
  H  H32  1  0.25000000  0.00000000  0.59600000  1.0
  H  H33  1  0.25000000  0.50000000  0.90400000  1.0
  H  H34  1  0.75000000  0.00000000  0.40400000  1.0
  H  H35  1  0.75000000  0.50000000  0.09600000  1.0
  C  C36  1  0.29800000  0.31700000  0.41150000  1.0
  C  C37  1  0.18190000  0.24010000  0.43720000  1.0
  C  C38  1  0.20200000  0.68300000  0.41150000  1.0
  C  C39  1  0.31810000  0.75990000  0.43720000  1.0
  C  C40  1  0.20200000  0.81700000  0.08850000  1.0
  C  C41  1  0.31810000  0.74010000  0.06280000  1.0
  C  C42  1  0.29800000  0.18300000  0.08850000  1.0
  C  C43  1  0.18190000  0.25990000  0.06280000  1.0
  C  C44  1  0.70200000  0.68300000  0.58850000  1.0
  C  C45  1  0.81810000  0.75990000  0.56280000  1.0
  C  C46  1  0.79800000  0.31700000  0.58850000  1.0
  C  C47  1  0.68190000  0.24010000  0.56280000  1.0
  C  C48  1  0.79800000  0.18300000  0.91150000  1.0
  C  C49  1  0.68190000  0.25990000  0.93720000  1.0
  C  C50  1  0.70200000  0.81700000  0.91150000  1.0
  C  C51  1  0.81810000  0.74010000  0.93720000  1.0
  O  O52  1  0.29900000  0.14619000  0.31612000  1.0
  O  O53  1  0.43380000  0.10747000  0.44377000  1.0
  O  O54  1  0.09020000  0.07294000  0.41373000  1.0
  O  O55  1  0.37280000  0.36590000  0.45750000  1.0
  O  O56  1  0.31220000  0.33010000  0.33850000  1.0
  O  O57  1  0.20100000  0.85381000  0.31612000  1.0
  O  O58  1  0.06620000  0.89253000  0.44377000  1.0
  O  O59  1  0.40980000  0.92706000  0.41373000  1.0
  O  O60  1  0.12720000  0.63410000  0.45750000  1.0
  O  O61  1  0.18780000  0.66990000  0.33850000  1.0
  O  O62  1  0.20100000  0.64619000  0.18388000  1.0
  O  O63  1  0.06620000  0.60747000  0.05623000  1.0
  O  O64  1  0.40980000  0.57294000  0.08627000  1.0
  O  O65  1  0.12720000  0.86590000  0.04250000  1.0
  O  O66  1  0.18780000  0.83010000  0.16150000  1.0
  O  O67  1  0.29900000  0.35381000  0.18388000  1.0
  O  O68  1  0.43380000  0.39253000  0.05623000  1.0
  O  O69  1  0.09020000  0.42706000  0.08627000  1.0
  O  O70  1  0.37280000  0.13410000  0.04250000  1.0
  O  O71  1  0.31220000  0.16990000  0.16150000  1.0
  O  O72  1  0.70100000  0.85381000  0.68388000  1.0
  O  O73  1  0.56620000  0.89253000  0.55623000  1.0
  O  O74  1  0.90980000  0.92706000  0.58627000  1.0
  O  O75  1  0.62720000  0.63410000  0.54250000  1.0
  O  O76  1  0.68780000  0.66990000  0.66150000  1.0
  O  O77  1  0.79900000  0.14619000  0.68388000  1.0
  O  O78  1  0.93380000  0.10747000  0.55623000  1.0
  O  O79  1  0.59020000  0.07294000  0.58627000  1.0
  O  O80  1  0.87280000  0.36590000  0.54250000  1.0
  O  O81  1  0.81220000  0.33010000  0.66150000  1.0
  O  O82  1  0.79900000  0.35381000  0.81612000  1.0
  O  O83  1  0.93380000  0.39253000  0.94377000  1.0
  O  O84  1  0.59020000  0.42706000  0.91373000  1.0
  O  O85  1  0.87280000  0.13410000  0.95750000  1.0
  O  O86  1  0.81220000  0.16990000  0.83850000  1.0
  O  O87  1  0.70100000  0.64619000  0.81612000  1.0
  O  O88  1  0.56620000  0.60747000  0.94377000  1.0
  O  O89  1  0.90980000  0.57294000  0.91373000  1.0
  O  O90  1  0.62720000  0.86590000  0.95750000  1.0
  O  O91  1  0.68780000  0.83010000  0.83850000  1.0
  O  O92  1  0.25000000  0.00000000  0.54290000  1.0
  O  O93  1  0.25000000  0.50000000  0.95710000  1.0
  O  O94  1  0.75000000  0.00000000  0.45710000  1.0
  O  O95  1  0.75000000  0.50000000  0.04290000  1.0
