# generated using pymatgen
data_V2CuMo12PH24C24(N6O17)2
_symmetry_space_group_name_H-M   'P 1'
_cell_length_a   13.11800000
_cell_length_b   14.62400000
_cell_length_c   15.19300000
_cell_angle_alpha   95.00000000
_cell_angle_beta   114.61000000
_cell_angle_gamma   111.88000000
_symmetry_Int_Tables_number   1
_chemical_formula_structural   V2CuMo12PH24C24(N6O17)2
_chemical_formula_sum   'V2 Cu1 Mo12 P1 H24 C24 N12 O34'
_cell_volume   2355.32694638
_cell_formula_units_Z   1
loop_
 _symmetry_equiv_pos_site_id
 _symmetry_equiv_pos_as_xyz
  1  'x, y, z'
loop_
 _atom_site_type_symbol
 _atom_site_label
 _atom_site_symmetry_multiplicity
 _atom_site_fract_x
 _atom_site_fract_y
 _atom_site_fract_z
 _atom_site_occupancy
  V  V0  1  0.23848000  0.00236000  0.23950000  1.0
  V  V1  1  0.76152000  0.99764000  0.76050000  1.0
  Cu  Cu2  1  0.00000000  0.00000000  0.00000000  1.0
  Mo  Mo3  1  0.66603000  0.27822000  0.57424000  1.0
  Mo  Mo4  1  0.68145000  0.98201000  0.37795000  1.0
  Mo  Mo5  1  0.83733000  0.13302000  0.63259000  1.0
  Mo  Mo6  1  0.52323000  0.13677000  0.31819000  1.0
  Mo  Mo7  1  0.31855000  0.01799000  0.62205000  1.0
  Mo  Mo8  1  0.66528000  0.84598000  0.55849000  1.0
  Mo  Mo9  1  0.47677000  0.86323000  0.68181000  1.0
  Mo  Mo10  1  0.65083000  0.14900000  0.75928000  1.0
  Mo  Mo11  1  0.33472000  0.15402000  0.44151000  1.0
  Mo  Mo12  1  0.34917000  0.85100000  0.24072000  1.0
  Mo  Mo13  1  0.33397000  0.72178000  0.42576000  1.0
  Mo  Mo14  1  0.16267000  0.86698000  0.36741000  1.0
  P  P15  1  0.50000000  0.00000000  0.50000000  1.0
  H  H16  1  0.45420000  0.85130000  0.04990000  1.0
  H  H17  1  0.78800000  0.07180000  0.97710000  1.0
  H  H18  1  0.25010000  0.28710000  0.83390000  1.0
  H  H19  1  0.29220000  0.17850000  0.14180000  1.0
  H  H20  1  0.64330000  0.74740000  0.12530000  1.0
  H  H21  1  0.65190000  0.99040000  0.13820000  1.0
  H  H22  1  0.21200000  0.92820000  0.02290000  1.0
  H  H23  1  0.35670000  0.25260000  0.87470000  1.0
  H  H24  1  0.54820000  0.39460000  0.92590000  1.0
  H  H25  1  0.70780000  0.82150000  0.85820000  1.0
  H  H26  1  0.08220000  0.13590000  0.22650000  1.0
  H  H27  1  0.34810000  0.00960000  0.86180000  1.0
  H  H28  1  0.25200000  0.77320000  0.91970000  1.0
  H  H29  1  0.45180000  0.60540000  0.07410000  1.0
  H  H30  1  0.76020000  0.19590000  0.17900000  1.0
  H  H31  1  0.74990000  0.71290000  0.16610000  1.0
  H  H32  1  0.74800000  0.22680000  0.08030000  1.0
  H  H33  1  0.91860000  0.86090000  0.14050000  1.0
  H  H34  1  0.68340000  0.56180000  0.99100000  1.0
  H  H35  1  0.08140000  0.13910000  0.85950000  1.0
  H  H36  1  0.91780000  0.86410000  0.77350000  1.0
  H  H37  1  0.31660000  0.43820000  0.00900000  1.0
  H  H38  1  0.23980000  0.80410000  0.82100000  1.0
  H  H39  1  0.54580000  0.14870000  0.95010000  1.0
  C  C40  1  0.38950000  0.46250000  0.00350000  1.0
  C  C41  1  0.58970000  0.99440000  0.08190000  1.0
  C  C42  1  0.15070000  0.90390000  0.95520000  1.0
  C  C43  1  0.47220000  0.56130000  0.04470000  1.0
  C  C44  1  0.52880000  0.08960000  0.97130000  1.0
  C  C45  1  0.25550000  0.82890000  0.88890000  1.0
  C  C46  1  0.41030000  0.00560000  0.91810000  1.0
  C  C47  1  0.47120000  0.91040000  0.02870000  1.0
  C  C48  1  0.52780000  0.43870000  0.95530000  1.0
  C  C49  1  0.58840000  0.60280000  0.04640000  1.0
  C  C50  1  0.61050000  0.53750000  0.99650000  1.0
  C  C51  1  0.00540000  0.13080000  0.17960000  1.0
  C  C52  1  0.73640000  0.81550000  0.92360000  1.0
  C  C53  1  0.61740000  0.08470000  0.05280000  1.0
  C  C54  1  0.38260000  0.91530000  0.94720000  1.0
  C  C55  1  0.99460000  0.86920000  0.82040000  1.0
  C  C56  1  0.14950000  0.16250000  0.92430000  1.0
  C  C57  1  0.74450000  0.17110000  0.11110000  1.0
  C  C58  1  0.68350000  0.71240000  0.10510000  1.0
  C  C59  1  0.85050000  0.83750000  0.07570000  1.0
  C  C60  1  0.41160000  0.39720000  0.95360000  1.0
  C  C61  1  0.31650000  0.28760000  0.89490000  1.0
  C  C62  1  0.84930000  0.09610000  0.04480000  1.0
  C  C63  1  0.26360000  0.18450000  0.07640000  1.0
  N  N64  1  0.15700000  0.85480000  0.88270000  1.0
  N  N65  1  0.26090000  0.23050000  0.94970000  1.0
  N  N66  1  0.85700000  0.87040000  0.99810000  1.0
  N  N67  1  0.94300000  0.16560000  0.20480000  1.0
  N  N68  1  0.84300000  0.14520000  0.11730000  1.0
  N  N69  1  0.66170000  0.75090000  0.95420000  1.0
  N  N70  1  0.05700000  0.83440000  0.79520000  1.0
  N  N71  1  0.73910000  0.76950000  0.05030000  1.0
  N  N72  1  0.14300000  0.12960000  0.00190000  1.0
  N  N73  1  0.33830000  0.24910000  0.04580000  1.0
  N  N74  1  0.04810000  0.91430000  0.92060000  1.0
  N  N75  1  0.95190000  0.08570000  0.07940000  1.0
  O  O76  1  0.51210000  0.99790000  0.39880000  1.0
  O  O77  1  0.79710000  0.99060000  0.65070000  1.0
  O  O78  1  0.21020000  0.86770000  0.25580000  1.0
  O  O79  1  0.38650000  0.00630000  0.48290000  1.0
  O  O80  1  0.33020000  0.74790000  0.30300000  1.0
  O  O81  1  0.37620000  0.99440000  0.23320000  1.0
  O  O82  1  0.20290000  0.00940000  0.34930000  1.0
  O  O83  1  0.62870000  0.86330000  0.67530000  1.0
  O  O84  1  0.87150000  0.00100000  0.86770000  1.0
  O  O85  1  0.51260000  0.88400000  0.27830000  1.0
  O  O86  1  0.12850000  0.99900000  0.13230000  1.0
  O  O87  1  0.37780000  0.90200000  0.42080000  1.0
  O  O88  1  0.48740000  0.11600000  0.72170000  1.0
  O  O89  1  0.63510000  0.08710000  0.33080000  1.0
  O  O90  1  0.80750000  0.08440000  0.50550000  1.0
  O  O91  1  0.50460000  0.74560000  0.47730000  1.0
  O  O92  1  0.48790000  0.00210000  0.60120000  1.0
  O  O93  1  0.61350000  0.99370000  0.51710000  1.0
  O  O94  1  0.62750000  0.24160000  0.43630000  1.0
  O  O95  1  0.62380000  0.00560000  0.76680000  1.0
  O  O96  1  0.78980000  0.13230000  0.74420000  1.0
  O  O97  1  0.37250000  0.75840000  0.56370000  1.0
  O  O98  1  0.36490000  0.91290000  0.66920000  1.0
  O  O99  1  0.49490000  0.09380000  0.47210000  1.0
  O  O100  1  0.66980000  0.25210000  0.69700000  1.0
  O  O101  1  0.50510000  0.90620000  0.52790000  1.0
  O  O102  1  0.20240000  0.76340000  0.39240000  1.0
  O  O103  1  0.79760000  0.23660000  0.60760000  1.0
  O  O104  1  0.37130000  0.13670000  0.32470000  1.0
  O  O105  1  0.49540000  0.25440000  0.52270000  1.0
  O  O106  1  0.68710000  0.88360000  0.45160000  1.0
  O  O107  1  0.19250000  0.91560000  0.49450000  1.0
  O  O108  1  0.31290000  0.11640000  0.54840000  1.0
  O  O109  1  0.62220000  0.09800000  0.57920000  1.0
