# generated using pymatgen
data_ZnH12C18N2O3
_symmetry_space_group_name_H-M   'P 1'
_cell_length_a   26.71300000
_cell_length_b   26.71300000
_cell_length_c   5.08830000
_cell_angle_alpha   90.00000000
_cell_angle_beta   90.00000000
_cell_angle_gamma   90.00000000
_symmetry_Int_Tables_number   1
_chemical_formula_structural   ZnH12C18N2O3
_chemical_formula_sum   'Zn8 H96 C144 N16 O24'
_cell_volume   3630.93134478
_cell_formula_units_Z   8
loop_
 _symmetry_equiv_pos_site_id
 _symmetry_equiv_pos_as_xyz
  1  'x, y, z'
loop_
 _atom_site_type_symbol
 _atom_site_label
 _atom_site_symmetry_multiplicity
 _atom_site_fract_x
 _atom_site_fract_y
 _atom_site_fract_z
 _atom_site_occupancy
  Zn  Zn0  1  0.78670000  0.77091000  0.30051000  1.0
  Zn  Zn1  1  0.28670000  0.27091000  0.80051000  1.0
  Zn  Zn2  1  0.21330000  0.22909000  0.30051000  1.0
  Zn  Zn3  1  0.71330000  0.72909000  0.80051000  1.0
  Zn  Zn4  1  0.77091000  0.21330000  0.69949000  1.0
  Zn  Zn5  1  0.27091000  0.71330000  0.19949000  1.0
  Zn  Zn6  1  0.22909000  0.78670000  0.69949000  1.0
  Zn  Zn7  1  0.72909000  0.28670000  0.19949000  1.0
  H  H8  1  0.89290000  0.79230000  0.05780000  1.0
  H  H9  1  0.82030000  0.68800000  0.71440000  1.0
  H  H10  1  0.82830000  0.62220000  0.06150000  1.0
  H  H11  1  0.87650000  0.56330000  0.28140000  1.0
  H  H12  1  0.96200000  0.55340000  0.17610000  1.0
  H  H13  1  0.99840000  0.59930000  0.84680000  1.0
  H  H14  1  0.99390000  0.66840000  0.52080000  1.0
  H  H15  1  0.96150000  0.77810000  0.78330000  1.0
  H  H16  1  0.03940000  0.79990000  0.60200000  1.0
  H  H17  1  0.10700000  0.76350000  0.28650000  1.0
  H  H18  1  0.02970000  0.74430000  0.47300000  1.0
  H  H19  1  0.25618000  0.18907000  0.62380000  1.0
  H  H20  1  0.39290000  0.29230000  0.55780000  1.0
  H  H21  1  0.32030000  0.18800000  0.21440000  1.0
  H  H22  1  0.32830000  0.12220000  0.56150000  1.0
  H  H23  1  0.37650000  0.06330000  0.78140000  1.0
  H  H24  1  0.46200000  0.05340000  0.67610000  1.0
  H  H25  1  0.49840000  0.09930000  0.34680000  1.0
  H  H26  1  0.49390000  0.16840000  0.02080000  1.0
  H  H27  1  0.46150000  0.27810000  0.28330000  1.0
  H  H28  1  0.53940000  0.29990000  0.10200000  1.0
  H  H29  1  0.60700000  0.26350000  0.78650000  1.0
  H  H30  1  0.52970000  0.24430000  0.97300000  1.0
  H  H31  1  0.75618000  0.68907000  0.12380000  1.0
  H  H32  1  0.10710000  0.20770000  0.05780000  1.0
  H  H33  1  0.17970000  0.31200000  0.71440000  1.0
  H  H34  1  0.17170000  0.37780000  0.06150000  1.0
  H  H35  1  0.12350000  0.43670000  0.28140000  1.0
  H  H36  1  0.03800000  0.44660000  0.17610000  1.0
  H  H37  1  0.00160000  0.40070000  0.84680000  1.0
  H  H38  1  0.00610000  0.33160000  0.52080000  1.0
  H  H39  1  0.03850000  0.22190000  0.78330000  1.0
  H  H40  1  0.96060000  0.20010000  0.60200000  1.0
  H  H41  1  0.89300000  0.23650000  0.28650000  1.0
  H  H42  1  0.97030000  0.25570000  0.47300000  1.0
  H  H43  1  0.74382000  0.81093000  0.62380000  1.0
  H  H44  1  0.60710000  0.70770000  0.55780000  1.0
  H  H45  1  0.67970000  0.81200000  0.21440000  1.0
  H  H46  1  0.67170000  0.87780000  0.56150000  1.0
  H  H47  1  0.62350000  0.93670000  0.78140000  1.0
  H  H48  1  0.53800000  0.94660000  0.67610000  1.0
  H  H49  1  0.50160000  0.90070000  0.34680000  1.0
  H  H50  1  0.50610000  0.83160000  0.02080000  1.0
  H  H51  1  0.53850000  0.72190000  0.28330000  1.0
  H  H52  1  0.46060000  0.70010000  0.10200000  1.0
  H  H53  1  0.39300000  0.73650000  0.78650000  1.0
  H  H54  1  0.47030000  0.75570000  0.97300000  1.0
  H  H55  1  0.24382000  0.31093000  0.12380000  1.0
  H  H56  1  0.79230000  0.10710000  0.94220000  1.0
  H  H57  1  0.68800000  0.17970000  0.28560000  1.0
  H  H58  1  0.62220000  0.17170000  0.93850000  1.0
  H  H59  1  0.56330000  0.12350000  0.71860000  1.0
  H  H60  1  0.55340000  0.03800000  0.82390000  1.0
  H  H61  1  0.59930000  0.00160000  0.15320000  1.0
  H  H62  1  0.66840000  0.00610000  0.47920000  1.0
  H  H63  1  0.77810000  0.03850000  0.21670000  1.0
  H  H64  1  0.79990000  0.96060000  0.39800000  1.0
  H  H65  1  0.76350000  0.89300000  0.71350000  1.0
  H  H66  1  0.74430000  0.97030000  0.52700000  1.0
  H  H67  1  0.18907000  0.74382000  0.37620000  1.0
  H  H68  1  0.29230000  0.60710000  0.44220000  1.0
  H  H69  1  0.18800000  0.67970000  0.78560000  1.0
  H  H70  1  0.12220000  0.67170000  0.43850000  1.0
  H  H71  1  0.06330000  0.62350000  0.21860000  1.0
  H  H72  1  0.05340000  0.53800000  0.32390000  1.0
  H  H73  1  0.09930000  0.50160000  0.65320000  1.0
  H  H74  1  0.16840000  0.50610000  0.97920000  1.0
  H  H75  1  0.27810000  0.53850000  0.71670000  1.0
  H  H76  1  0.29990000  0.46060000  0.89800000  1.0
  H  H77  1  0.26350000  0.39300000  0.21350000  1.0
  H  H78  1  0.24430000  0.47030000  0.02700000  1.0
  H  H79  1  0.68907000  0.24382000  0.87620000  1.0
  H  H80  1  0.20770000  0.89290000  0.94220000  1.0
  H  H81  1  0.31200000  0.82030000  0.28560000  1.0
  H  H82  1  0.37780000  0.82830000  0.93850000  1.0
  H  H83  1  0.43670000  0.87650000  0.71860000  1.0
  H  H84  1  0.44660000  0.96200000  0.82390000  1.0
  H  H85  1  0.40070000  0.99840000  0.15320000  1.0
  H  H86  1  0.33160000  0.99390000  0.47920000  1.0
  H  H87  1  0.22190000  0.96150000  0.21670000  1.0
  H  H88  1  0.20010000  0.03940000  0.39800000  1.0
  H  H89  1  0.23650000  0.10700000  0.71350000  1.0
  H  H90  1  0.25570000  0.02970000  0.52700000  1.0
  H  H91  1  0.81093000  0.25618000  0.37620000  1.0
  H  H92  1  0.70770000  0.39290000  0.44220000  1.0
  H  H93  1  0.81200000  0.32030000  0.78560000  1.0
  H  H94  1  0.87780000  0.32830000  0.43850000  1.0
  H  H95  1  0.93670000  0.37650000  0.21860000  1.0
  H  H96  1  0.94660000  0.46200000  0.32390000  1.0
  H  H97  1  0.90070000  0.49840000  0.65320000  1.0
  H  H98  1  0.83160000  0.49390000  0.97920000  1.0
  H  H99  1  0.72190000  0.46150000  0.71670000  1.0
  H  H100  1  0.70010000  0.53940000  0.89800000  1.0
  H  H101  1  0.73650000  0.60700000  0.21350000  1.0
  H  H102  1  0.75570000  0.52970000  0.02700000  1.0
  H  H103  1  0.31093000  0.75618000  0.87620000  1.0
  C  C104  1  0.89617000  0.76647000  0.18500000  1.0
  C  C105  1  0.87799000  0.71156000  0.48970000  1.0
  C  C106  1  0.85486000  0.68367000  0.67640000  1.0
  C  C107  1  0.88384000  0.64804000  0.81170000  1.0
  C  C108  1  0.86257000  0.61804000  0.01600000  1.0
  C  C109  1  0.89110000  0.58330000  0.14740000  1.0
  C  C110  1  0.94252000  0.57723000  0.08280000  1.0
  C  C111  1  0.96429000  0.60483000  0.89060000  1.0
  C  C112  1  0.93627000  0.64228000  0.75320000  1.0
  C  C113  1  0.95941000  0.67207000  0.56150000  1.0
  C  C114  1  0.93002000  0.70694000  0.43450000  1.0
  C  C115  1  0.98811000  0.75749000  0.13760000  1.0
  C  C116  1  0.08022000  0.78528000  0.93910000  1.0
  C  C117  1  0.12966000  0.80023000  0.82150000  1.0
  C  C118  1  0.99100000  0.77510000  0.88590000  1.0
  C  C119  1  0.03700000  0.78860000  0.77870000  1.0
  C  C120  1  0.07730000  0.76740000  0.18600000  1.0
  C  C121  1  0.03180000  0.75470000  0.29500000  1.0
  C  C122  1  0.39617000  0.26647000  0.68500000  1.0
  C  C123  1  0.37799000  0.21156000  0.98970000  1.0
  C  C124  1  0.35486000  0.18367000  0.17640000  1.0
  C  C125  1  0.38384000  0.14804000  0.31170000  1.0
  C  C126  1  0.36257000  0.11804000  0.51600000  1.0
  C  C127  1  0.39110000  0.08330000  0.64740000  1.0
  C  C128  1  0.44252000  0.07723000  0.58280000  1.0
  C  C129  1  0.46429000  0.10483000  0.39060000  1.0
  C  C130  1  0.43627000  0.14228000  0.25320000  1.0
  C  C131  1  0.45941000  0.17207000  0.06150000  1.0
  C  C132  1  0.43002000  0.20694000  0.93450000  1.0
  C  C133  1  0.48811000  0.25749000  0.63760000  1.0
  C  C134  1  0.58022000  0.28528000  0.43910000  1.0
  C  C135  1  0.62966000  0.30023000  0.32150000  1.0
  C  C136  1  0.49100000  0.27510000  0.38590000  1.0
  C  C137  1  0.53700000  0.28860000  0.27870000  1.0
  C  C138  1  0.57730000  0.26740000  0.68600000  1.0
  C  C139  1  0.53180000  0.25470000  0.79500000  1.0
  C  C140  1  0.10383000  0.23353000  0.18500000  1.0
  C  C141  1  0.12201000  0.28844000  0.48970000  1.0
  C  C142  1  0.14514000  0.31633000  0.67640000  1.0
  C  C143  1  0.11616000  0.35196000  0.81170000  1.0
  C  C144  1  0.13743000  0.38196000  0.01600000  1.0
  C  C145  1  0.10890000  0.41670000  0.14740000  1.0
  C  C146  1  0.05748000  0.42277000  0.08280000  1.0
  C  C147  1  0.03571000  0.39517000  0.89060000  1.0
  C  C148  1  0.06373000  0.35772000  0.75320000  1.0
  C  C149  1  0.04059000  0.32793000  0.56150000  1.0
  C  C150  1  0.06998000  0.29306000  0.43450000  1.0
  C  C151  1  0.01189000  0.24251000  0.13760000  1.0
  C  C152  1  0.91978000  0.21472000  0.93910000  1.0
  C  C153  1  0.87034000  0.19977000  0.82150000  1.0
  C  C154  1  0.00900000  0.22490000  0.88590000  1.0
  C  C155  1  0.96300000  0.21140000  0.77870000  1.0
  C  C156  1  0.92270000  0.23260000  0.18600000  1.0
  C  C157  1  0.96820000  0.24530000  0.29500000  1.0
  C  C158  1  0.60383000  0.73353000  0.68500000  1.0
  C  C159  1  0.62201000  0.78844000  0.98970000  1.0
  C  C160  1  0.64514000  0.81633000  0.17640000  1.0
  C  C161  1  0.61616000  0.85196000  0.31170000  1.0
  C  C162  1  0.63743000  0.88196000  0.51600000  1.0
  C  C163  1  0.60890000  0.91670000  0.64740000  1.0
  C  C164  1  0.55748000  0.92277000  0.58280000  1.0
  C  C165  1  0.53571000  0.89517000  0.39060000  1.0
  C  C166  1  0.56373000  0.85772000  0.25320000  1.0
  C  C167  1  0.54059000  0.82793000  0.06150000  1.0
  C  C168  1  0.56998000  0.79306000  0.93450000  1.0
  C  C169  1  0.51189000  0.74251000  0.63760000  1.0
  C  C170  1  0.41978000  0.71472000  0.43910000  1.0
  C  C171  1  0.37034000  0.69977000  0.32150000  1.0
  C  C172  1  0.50900000  0.72490000  0.38590000  1.0
  C  C173  1  0.46300000  0.71140000  0.27870000  1.0
  C  C174  1  0.42270000  0.73260000  0.68600000  1.0
  C  C175  1  0.46820000  0.74530000  0.79500000  1.0
  C  C176  1  0.76647000  0.10383000  0.81500000  1.0
  C  C177  1  0.71156000  0.12201000  0.51030000  1.0
  C  C178  1  0.68367000  0.14514000  0.32360000  1.0
  C  C179  1  0.64804000  0.11616000  0.18830000  1.0
  C  C180  1  0.61804000  0.13743000  0.98400000  1.0
  C  C181  1  0.58330000  0.10890000  0.85260000  1.0
  C  C182  1  0.57723000  0.05748000  0.91720000  1.0
  C  C183  1  0.60483000  0.03571000  0.10940000  1.0
  C  C184  1  0.64228000  0.06373000  0.24680000  1.0
  C  C185  1  0.67207000  0.04059000  0.43850000  1.0
  C  C186  1  0.70694000  0.06998000  0.56550000  1.0
  C  C187  1  0.75749000  0.01189000  0.86240000  1.0
  C  C188  1  0.78528000  0.91978000  0.06090000  1.0
  C  C189  1  0.80023000  0.87034000  0.17850000  1.0
  C  C190  1  0.77510000  0.00900000  0.11410000  1.0
  C  C191  1  0.78860000  0.96300000  0.22130000  1.0
  C  C192  1  0.76740000  0.92270000  0.81400000  1.0
  C  C193  1  0.75470000  0.96820000  0.70500000  1.0
  C  C194  1  0.26647000  0.60383000  0.31500000  1.0
  C  C195  1  0.21156000  0.62201000  0.01030000  1.0
  C  C196  1  0.18367000  0.64514000  0.82360000  1.0
  C  C197  1  0.14804000  0.61616000  0.68830000  1.0
  C  C198  1  0.11804000  0.63743000  0.48400000  1.0
  C  C199  1  0.08330000  0.60890000  0.35260000  1.0
  C  C200  1  0.07723000  0.55748000  0.41720000  1.0
  C  C201  1  0.10483000  0.53571000  0.60940000  1.0
  C  C202  1  0.14228000  0.56373000  0.74680000  1.0
  C  C203  1  0.17207000  0.54059000  0.93850000  1.0
  C  C204  1  0.20694000  0.56998000  0.06550000  1.0
  C  C205  1  0.25749000  0.51189000  0.36240000  1.0
  C  C206  1  0.28528000  0.41978000  0.56090000  1.0
  C  C207  1  0.30023000  0.37034000  0.67850000  1.0
  C  C208  1  0.27510000  0.50900000  0.61410000  1.0
  C  C209  1  0.28860000  0.46300000  0.72130000  1.0
  C  C210  1  0.26740000  0.42270000  0.31400000  1.0
  C  C211  1  0.25470000  0.46820000  0.20500000  1.0
  C  C212  1  0.23353000  0.89617000  0.81500000  1.0
  C  C213  1  0.28844000  0.87799000  0.51030000  1.0
  C  C214  1  0.31633000  0.85486000  0.32360000  1.0
  C  C215  1  0.35196000  0.88384000  0.18830000  1.0
  C  C216  1  0.38196000  0.86257000  0.98400000  1.0
  C  C217  1  0.41670000  0.89110000  0.85260000  1.0
  C  C218  1  0.42277000  0.94252000  0.91720000  1.0
  C  C219  1  0.39517000  0.96429000  0.10940000  1.0
  C  C220  1  0.35772000  0.93627000  0.24680000  1.0
  C  C221  1  0.32793000  0.95941000  0.43850000  1.0
  C  C222  1  0.29306000  0.93002000  0.56550000  1.0
  C  C223  1  0.24251000  0.98811000  0.86240000  1.0
  C  C224  1  0.21472000  0.08022000  0.06090000  1.0
  C  C225  1  0.19977000  0.12966000  0.17850000  1.0
  C  C226  1  0.22490000  0.99100000  0.11410000  1.0
  C  C227  1  0.21140000  0.03700000  0.22130000  1.0
  C  C228  1  0.23260000  0.07730000  0.81400000  1.0
  C  C229  1  0.24530000  0.03180000  0.70500000  1.0
  C  C230  1  0.73353000  0.39617000  0.31500000  1.0
  C  C231  1  0.78844000  0.37799000  0.01030000  1.0
  C  C232  1  0.81633000  0.35486000  0.82360000  1.0
  C  C233  1  0.85196000  0.38384000  0.68830000  1.0
  C  C234  1  0.88196000  0.36257000  0.48400000  1.0
  C  C235  1  0.91670000  0.39110000  0.35260000  1.0
  C  C236  1  0.92277000  0.44252000  0.41720000  1.0
  C  C237  1  0.89517000  0.46429000  0.60940000  1.0
  C  C238  1  0.85772000  0.43627000  0.74680000  1.0
  C  C239  1  0.82793000  0.45941000  0.93850000  1.0
  C  C240  1  0.79306000  0.43002000  0.06550000  1.0
  C  C241  1  0.74251000  0.48811000  0.36240000  1.0
  C  C242  1  0.71472000  0.58022000  0.56090000  1.0
  C  C243  1  0.69977000  0.62966000  0.67850000  1.0
  C  C244  1  0.72490000  0.49100000  0.61410000  1.0
  C  C245  1  0.71140000  0.53700000  0.72130000  1.0
  C  C246  1  0.73260000  0.57730000  0.31400000  1.0
  C  C247  1  0.74530000  0.53180000  0.20500000  1.0
  N  N248  1  0.85844000  0.74912000  0.32460000  1.0
  N  N249  1  0.94012000  0.74350000  0.24230000  1.0
  N  N250  1  0.35844000  0.24912000  0.82460000  1.0
  N  N251  1  0.44012000  0.24350000  0.74230000  1.0
  N  N252  1  0.14156000  0.25088000  0.32460000  1.0
  N  N253  1  0.05988000  0.25650000  0.24230000  1.0
  N  N254  1  0.64156000  0.75088000  0.82460000  1.0
  N  N255  1  0.55988000  0.75650000  0.74230000  1.0
  N  N256  1  0.74912000  0.14156000  0.67540000  1.0
  N  N257  1  0.74350000  0.05988000  0.75770000  1.0
  N  N258  1  0.24912000  0.64156000  0.17540000  1.0
  N  N259  1  0.24350000  0.55988000  0.25770000  1.0
  N  N260  1  0.25088000  0.85844000  0.67540000  1.0
  N  N261  1  0.25650000  0.94012000  0.75770000  1.0
  N  N262  1  0.75088000  0.35844000  0.17540000  1.0
  N  N263  1  0.75650000  0.44012000  0.25770000  1.0
  O  O264  1  0.74869000  0.71902000  0.12380000  1.0
  O  O265  1  0.16822000  0.78026000  0.91670000  1.0
  O  O266  1  0.12980000  0.81650000  0.58020000  1.0
  O  O267  1  0.24869000  0.21902000  0.62380000  1.0
  O  O268  1  0.66822000  0.28026000  0.41670000  1.0
  O  O269  1  0.62980000  0.31650000  0.08020000  1.0
  O  O270  1  0.25131000  0.28098000  0.12380000  1.0
  O  O271  1  0.83178000  0.21974000  0.91670000  1.0
  O  O272  1  0.87020000  0.18350000  0.58020000  1.0
  O  O273  1  0.75131000  0.78098000  0.62380000  1.0
  O  O274  1  0.33178000  0.71974000  0.41670000  1.0
  O  O275  1  0.37020000  0.68350000  0.08020000  1.0
  O  O276  1  0.71902000  0.25131000  0.87620000  1.0
  O  O277  1  0.78026000  0.83178000  0.08330000  1.0
  O  O278  1  0.81650000  0.87020000  0.41980000  1.0
  O  O279  1  0.21902000  0.75131000  0.37620000  1.0
  O  O280  1  0.28026000  0.33178000  0.58330000  1.0
  O  O281  1  0.31650000  0.37020000  0.91980000  1.0
  O  O282  1  0.28098000  0.74869000  0.87620000  1.0
  O  O283  1  0.21974000  0.16822000  0.08330000  1.0
  O  O284  1  0.18350000  0.12980000  0.41980000  1.0
  O  O285  1  0.78098000  0.24869000  0.37620000  1.0
  O  O286  1  0.71974000  0.66822000  0.58330000  1.0
  O  O287  1  0.68350000  0.62980000  0.91980000  1.0
