# generated using pymatgen
data_Cr3Cu3H36C42N6Cl7O13
_symmetry_space_group_name_H-M   'P 1'
_cell_length_a   13.46900000
_cell_length_b   13.46900000
_cell_length_c   27.51000000
_cell_angle_alpha   90.00000000
_cell_angle_beta   90.00000000
_cell_angle_gamma   120.00000000
_symmetry_Int_Tables_number   1
_chemical_formula_structural   Cr3Cu3H36C42N6Cl7O13
_chemical_formula_sum   'Cr6 Cu6 H72 C84 N12 Cl14 O26'
_cell_volume   4322.07130874
_cell_formula_units_Z   2
loop_
 _symmetry_equiv_pos_site_id
 _symmetry_equiv_pos_as_xyz
  1  'x, y, z'
loop_
 _atom_site_type_symbol
 _atom_site_label
 _atom_site_symmetry_multiplicity
 _atom_site_fract_x
 _atom_site_fract_y
 _atom_site_fract_z
 _atom_site_occupancy
  Cr  Cr0  1  0.48550000  0.79020000  0.75000000  1.0
  Cr  Cr1  1  0.30470000  0.51450000  0.75000000  1.0
  Cr  Cr2  1  0.20980000  0.69530000  0.75000000  1.0
  Cr  Cr3  1  0.30470000  0.79020000  0.25000000  1.0
  Cr  Cr4  1  0.20980000  0.51450000  0.25000000  1.0
  Cr  Cr5  1  0.48550000  0.69530000  0.25000000  1.0
  Cu  Cu6  1  0.77780000  0.88890000  0.00000000  1.0
  Cu  Cu7  1  0.11110000  0.22220000  0.00000000  1.0
  Cu  Cu8  1  0.11110000  0.88890000  0.00000000  1.0
  Cu  Cu9  1  0.77780000  0.88890000  0.50000000  1.0
  Cu  Cu10  1  0.11110000  0.22220000  0.50000000  1.0
  Cu  Cu11  1  0.11110000  0.88890000  0.50000000  1.0
  H  H12  1  0.83710000  0.85030000  0.92060000  1.0
  H  H13  1  0.84660000  0.77490000  0.95620000  1.0
  H  H14  1  0.54520000  0.42470000  0.93950000  1.0
  H  H15  1  0.70160000  0.58800000  0.97170000  1.0
  H  H16  1  0.66630000  0.78160000  0.86880000  1.0
  H  H17  1  0.44930000  0.43990000  0.87200000  1.0
  H  H18  1  0.01320000  0.16290000  0.92060000  1.0
  H  H19  1  0.92830000  0.15340000  0.95620000  1.0
  H  H20  1  0.87950000  0.45480000  0.93950000  1.0
  H  H21  1  0.88640000  0.29840000  0.97170000  1.0
  H  H22  1  0.11530000  0.33370000  0.86880000  1.0
  H  H23  1  0.99060000  0.55070000  0.87200000  1.0
  H  H24  1  0.14970000  0.98680000  0.92060000  1.0
  H  H25  1  0.22510000  0.07170000  0.95620000  1.0
  H  H26  1  0.57530000  0.12050000  0.93950000  1.0
  H  H27  1  0.41200000  0.11360000  0.97170000  1.0
  H  H28  1  0.21840000  0.88470000  0.86880000  1.0
  H  H29  1  0.56010000  0.00940000  0.87200000  1.0
  H  H30  1  0.83710000  0.85030000  0.57940000  1.0
  H  H31  1  0.84660000  0.77490000  0.54380000  1.0
  H  H32  1  0.54520000  0.42470000  0.56050000  1.0
  H  H33  1  0.70160000  0.58800000  0.52830000  1.0
  H  H34  1  0.66630000  0.78160000  0.63120000  1.0
  H  H35  1  0.44930000  0.43990000  0.62800000  1.0
  H  H36  1  0.01320000  0.16290000  0.57940000  1.0
  H  H37  1  0.92830000  0.15340000  0.54380000  1.0
  H  H38  1  0.87950000  0.45480000  0.56050000  1.0
  H  H39  1  0.88640000  0.29840000  0.52830000  1.0
  H  H40  1  0.11530000  0.33370000  0.63120000  1.0
  H  H41  1  0.99060000  0.55070000  0.62800000  1.0
  H  H42  1  0.14970000  0.98680000  0.57940000  1.0
  H  H43  1  0.22510000  0.07170000  0.54380000  1.0
  H  H44  1  0.57530000  0.12050000  0.56050000  1.0
  H  H45  1  0.41200000  0.11360000  0.52830000  1.0
  H  H46  1  0.21840000  0.88470000  0.63120000  1.0
  H  H47  1  0.56010000  0.00940000  0.62800000  1.0
  H  H48  1  0.01320000  0.85030000  0.42060000  1.0
  H  H49  1  0.92830000  0.77490000  0.45620000  1.0
  H  H50  1  0.87950000  0.42470000  0.43950000  1.0
  H  H51  1  0.88640000  0.58800000  0.47170000  1.0
  H  H52  1  0.11530000  0.78160000  0.36880000  1.0
  H  H53  1  0.99060000  0.43990000  0.37200000  1.0
  H  H54  1  0.14970000  0.16290000  0.42060000  1.0
  H  H55  1  0.22510000  0.15340000  0.45620000  1.0
  H  H56  1  0.57530000  0.45480000  0.43950000  1.0
  H  H57  1  0.41200000  0.29840000  0.47170000  1.0
  H  H58  1  0.21840000  0.33370000  0.36880000  1.0
  H  H59  1  0.56010000  0.55070000  0.37200000  1.0
  H  H60  1  0.83710000  0.98680000  0.42060000  1.0
  H  H61  1  0.84660000  0.07170000  0.45620000  1.0
  H  H62  1  0.54520000  0.12050000  0.43950000  1.0
  H  H63  1  0.70160000  0.11360000  0.47170000  1.0
  H  H64  1  0.66630000  0.88470000  0.36880000  1.0
  H  H65  1  0.44930000  0.00940000  0.37200000  1.0
  H  H66  1  0.01320000  0.85030000  0.07940000  1.0
  H  H67  1  0.92830000  0.77490000  0.04380000  1.0
  H  H68  1  0.87950000  0.42470000  0.06050000  1.0
  H  H69  1  0.88640000  0.58800000  0.02830000  1.0
  H  H70  1  0.11530000  0.78160000  0.13120000  1.0
  H  H71  1  0.99060000  0.43990000  0.12800000  1.0
  H  H72  1  0.14970000  0.16290000  0.07940000  1.0
  H  H73  1  0.22510000  0.15340000  0.04380000  1.0
  H  H74  1  0.57530000  0.45480000  0.06050000  1.0
  H  H75  1  0.41200000  0.29840000  0.02830000  1.0
  H  H76  1  0.21840000  0.33370000  0.13120000  1.0
  H  H77  1  0.56010000  0.55070000  0.12800000  1.0
  H  H78  1  0.83710000  0.98680000  0.07940000  1.0
  H  H79  1  0.84660000  0.07170000  0.04380000  1.0
  H  H80  1  0.54520000  0.12050000  0.06050000  1.0
  H  H81  1  0.70160000  0.11360000  0.02830000  1.0
  H  H82  1  0.66630000  0.88470000  0.13120000  1.0
  H  H83  1  0.44930000  0.00940000  0.12800000  1.0
  C  C84  1  0.56960000  0.49670000  0.92530000  1.0
  C  C85  1  0.66300000  0.59420000  0.94450000  1.0
  C  C86  1  0.69910000  0.70060000  0.92340000  1.0
  C  C87  1  0.64190000  0.70960000  0.88310000  1.0
  C  C88  1  0.54860000  0.61230000  0.86390000  1.0
  C  C89  1  0.51240000  0.50570000  0.88500000  1.0
  C  C90  1  0.49570000  0.62880000  0.81920000  1.0
  C  C91  1  0.92710000  0.43040000  0.92530000  1.0
  C  C92  1  0.93120000  0.33700000  0.94450000  1.0
  C  C93  1  0.00150000  0.30090000  0.92340000  1.0
  C  C94  1  0.06770000  0.35810000  0.88310000  1.0
  C  C95  1  0.06370000  0.45140000  0.86390000  1.0
  C  C96  1  0.99330000  0.48760000  0.88500000  1.0
  C  C97  1  0.13310000  0.50430000  0.81920000  1.0
  C  C98  1  0.50330000  0.07290000  0.92530000  1.0
  C  C99  1  0.40580000  0.06880000  0.94450000  1.0
  C  C100  1  0.29940000  0.99850000  0.92340000  1.0
  C  C101  1  0.29040000  0.93230000  0.88310000  1.0
  C  C102  1  0.38770000  0.93630000  0.86390000  1.0
  C  C103  1  0.49430000  0.00670000  0.88500000  1.0
  C  C104  1  0.37120000  0.86690000  0.81920000  1.0
  C  C105  1  0.56960000  0.49670000  0.57470000  1.0
  C  C106  1  0.66300000  0.59420000  0.55550000  1.0
  C  C107  1  0.69910000  0.70060000  0.57660000  1.0
  C  C108  1  0.64190000  0.70960000  0.61690000  1.0
  C  C109  1  0.54860000  0.61230000  0.63610000  1.0
  C  C110  1  0.51240000  0.50570000  0.61500000  1.0
  C  C111  1  0.49570000  0.62880000  0.68080000  1.0
  C  C112  1  0.92710000  0.43040000  0.57470000  1.0
  C  C113  1  0.93120000  0.33700000  0.55550000  1.0
  C  C114  1  0.00150000  0.30090000  0.57660000  1.0
  C  C115  1  0.06770000  0.35810000  0.61690000  1.0
  C  C116  1  0.06370000  0.45140000  0.63610000  1.0
  C  C117  1  0.99330000  0.48760000  0.61500000  1.0
  C  C118  1  0.13310000  0.50430000  0.68080000  1.0
  C  C119  1  0.50330000  0.07290000  0.57470000  1.0
  C  C120  1  0.40580000  0.06880000  0.55550000  1.0
  C  C121  1  0.29940000  0.99850000  0.57660000  1.0
  C  C122  1  0.29040000  0.93230000  0.61690000  1.0
  C  C123  1  0.38770000  0.93630000  0.63610000  1.0
  C  C124  1  0.49430000  0.00670000  0.61500000  1.0
  C  C125  1  0.37120000  0.86690000  0.68080000  1.0
  C  C126  1  0.92710000  0.49670000  0.42530000  1.0
  C  C127  1  0.93120000  0.59420000  0.44450000  1.0
  C  C128  1  0.00150000  0.70060000  0.42340000  1.0
  C  C129  1  0.06770000  0.70960000  0.38310000  1.0
  C  C130  1  0.06370000  0.61230000  0.36390000  1.0
  C  C131  1  0.99330000  0.50570000  0.38500000  1.0
  C  C132  1  0.13310000  0.62880000  0.31920000  1.0
  C  C133  1  0.50330000  0.43040000  0.42530000  1.0
  C  C134  1  0.40580000  0.33700000  0.44450000  1.0
  C  C135  1  0.29940000  0.30090000  0.42340000  1.0
  C  C136  1  0.29040000  0.35810000  0.38310000  1.0
  C  C137  1  0.38770000  0.45140000  0.36390000  1.0
  C  C138  1  0.49430000  0.48760000  0.38500000  1.0
  C  C139  1  0.37120000  0.50430000  0.31920000  1.0
  C  C140  1  0.56960000  0.07290000  0.42530000  1.0
  C  C141  1  0.66300000  0.06880000  0.44450000  1.0
  C  C142  1  0.69910000  0.99850000  0.42340000  1.0
  C  C143  1  0.64190000  0.93230000  0.38310000  1.0
  C  C144  1  0.54860000  0.93630000  0.36390000  1.0
  C  C145  1  0.51240000  0.00670000  0.38500000  1.0
  C  C146  1  0.49570000  0.86690000  0.31920000  1.0
  C  C147  1  0.92710000  0.49670000  0.07470000  1.0
  C  C148  1  0.93120000  0.59420000  0.05550000  1.0
  C  C149  1  0.00150000  0.70060000  0.07660000  1.0
  C  C150  1  0.06770000  0.70960000  0.11690000  1.0
  C  C151  1  0.06370000  0.61230000  0.13610000  1.0
  C  C152  1  0.99330000  0.50570000  0.11500000  1.0
  C  C153  1  0.13310000  0.62880000  0.18080000  1.0
  C  C154  1  0.50330000  0.43040000  0.07470000  1.0
  C  C155  1  0.40580000  0.33700000  0.05550000  1.0
  C  C156  1  0.29940000  0.30090000  0.07660000  1.0
  C  C157  1  0.29040000  0.35810000  0.11690000  1.0
  C  C158  1  0.38770000  0.45140000  0.13610000  1.0
  C  C159  1  0.49430000  0.48760000  0.11500000  1.0
  C  C160  1  0.37120000  0.50430000  0.18080000  1.0
  C  C161  1  0.56960000  0.07290000  0.07470000  1.0
  C  C162  1  0.66300000  0.06880000  0.05550000  1.0
  C  C163  1  0.69910000  0.99850000  0.07660000  1.0
  C  C164  1  0.64190000  0.93230000  0.11690000  1.0
  C  C165  1  0.54860000  0.93630000  0.13610000  1.0
  C  C166  1  0.51240000  0.00670000  0.11500000  1.0
  C  C167  1  0.49570000  0.86690000  0.18080000  1.0
  N  N168  1  0.79920000  0.79970000  0.94500000  1.0
  N  N169  1  0.00050000  0.20080000  0.94500000  1.0
  N  N170  1  0.20030000  0.99950000  0.94500000  1.0
  N  N171  1  0.79920000  0.79970000  0.55500000  1.0
  N  N172  1  0.00050000  0.20080000  0.55500000  1.0
  N  N173  1  0.20030000  0.99950000  0.55500000  1.0
  N  N174  1  0.00050000  0.79970000  0.44500000  1.0
  N  N175  1  0.20030000  0.20080000  0.44500000  1.0
  N  N176  1  0.79920000  0.99950000  0.44500000  1.0
  N  N177  1  0.00050000  0.79970000  0.05500000  1.0
  N  N178  1  0.20030000  0.20080000  0.05500000  1.0
  N  N179  1  0.79920000  0.99950000  0.05500000  1.0
  Cl  Cl180  1  0.74000000  0.74140000  0.05315000  1.0
  Cl  Cl181  1  0.00140000  0.26000000  0.05315000  1.0
  Cl  Cl182  1  0.25860000  0.99860000  0.05315000  1.0
  Cl  Cl183  1  0.74000000  0.74140000  0.44685000  1.0
  Cl  Cl184  1  0.00140000  0.26000000  0.44685000  1.0
  Cl  Cl185  1  0.25860000  0.99860000  0.44685000  1.0
  Cl  Cl186  1  0.00140000  0.74140000  0.55315000  1.0
  Cl  Cl187  1  0.25860000  0.26000000  0.55315000  1.0
  Cl  Cl188  1  0.74000000  0.99860000  0.55315000  1.0
  Cl  Cl189  1  0.00140000  0.74140000  0.94685000  1.0
  Cl  Cl190  1  0.25860000  0.26000000  0.94685000  1.0
  Cl  Cl191  1  0.74000000  0.99860000  0.94685000  1.0
  Cl  Cl192  1  0.00000000  0.00000000  0.00000000  1.0
  Cl  Cl193  1  0.00000000  0.00000000  0.50000000  1.0
  O  O194  1  0.53400000  0.72550000  0.80310000  1.0
  O  O195  1  0.41710000  0.54270000  0.80360000  1.0
  O  O196  1  0.19150000  0.46600000  0.80310000  1.0
  O  O197  1  0.12560000  0.58290000  0.80360000  1.0
  O  O198  1  0.27450000  0.80850000  0.80310000  1.0
  O  O199  1  0.45730000  0.87440000  0.80360000  1.0
  O  O200  1  0.53400000  0.72550000  0.69690000  1.0
  O  O201  1  0.41710000  0.54270000  0.69640000  1.0
  O  O202  1  0.19150000  0.46600000  0.69690000  1.0
  O  O203  1  0.12560000  0.58290000  0.69640000  1.0
  O  O204  1  0.27450000  0.80850000  0.69690000  1.0
  O  O205  1  0.45730000  0.87440000  0.69640000  1.0
  O  O206  1  0.19150000  0.72550000  0.30310000  1.0
  O  O207  1  0.12560000  0.54270000  0.30360000  1.0
  O  O208  1  0.27450000  0.46600000  0.30310000  1.0
  O  O209  1  0.45730000  0.58290000  0.30360000  1.0
  O  O210  1  0.53400000  0.80850000  0.30310000  1.0
  O  O211  1  0.41710000  0.87440000  0.30360000  1.0
  O  O212  1  0.19150000  0.72550000  0.19690000  1.0
  O  O213  1  0.12560000  0.54270000  0.19640000  1.0
  O  O214  1  0.27450000  0.46600000  0.19690000  1.0
  O  O215  1  0.45730000  0.58290000  0.19640000  1.0
  O  O216  1  0.53400000  0.80850000  0.19690000  1.0
  O  O217  1  0.41710000  0.87440000  0.19640000  1.0
  O  O218  1  0.33333333  0.66666667  0.75000000  1.0
  O  O219  1  0.33333333  0.66666667  0.25000000  1.0
