# generated using pymatgen
data_K2Rb2NaYGeH3W11(CO21)2
_symmetry_space_group_name_H-M   'P 1'
_cell_length_a   20.12440000
_cell_length_b   12.66190000
_cell_length_c   21.15180000
_cell_angle_alpha   90.00000000
_cell_angle_beta   110.94600000
_cell_angle_gamma   90.00000000
_symmetry_Int_Tables_number   1
_chemical_formula_structural   K2Rb2NaYGeH3W11(CO21)2
_chemical_formula_sum   'K8 Rb8 Na4 Y4 Ge4 H12 W44 C8 O168'
_cell_volume   5033.58942470
_cell_formula_units_Z   4
loop_
 _symmetry_equiv_pos_site_id
 _symmetry_equiv_pos_as_xyz
  1  'x, y, z'
loop_
 _atom_site_type_symbol
 _atom_site_label
 _atom_site_symmetry_multiplicity
 _atom_site_fract_x
 _atom_site_fract_y
 _atom_site_fract_z
 _atom_site_occupancy
  K  K0  1  0.80939000  0.76290000  0.06820000  1.0
  K  K1  1  0.47163000  0.13150000  0.73855000  1.0
  K  K2  1  0.19061000  0.26290000  0.43180000  1.0
  K  K3  1  0.52837000  0.63150000  0.76145000  1.0
  K  K4  1  0.19061000  0.23710000  0.93180000  1.0
  K  K5  1  0.52837000  0.86850000  0.26145000  1.0
  K  K6  1  0.80939000  0.73710000  0.56820000  1.0
  K  K7  1  0.47163000  0.36850000  0.23855000  1.0
  Rb  Rb8  1  0.02904000  0.11838000  0.76864000  1.0
  Rb  Rb9  1  0.67309000  0.34138000  0.98986000  1.0
  Rb  Rb10  1  0.97096000  0.61838000  0.73136000  1.0
  Rb  Rb11  1  0.32691000  0.84138000  0.51014000  1.0
  Rb  Rb12  1  0.97096000  0.88162000  0.23136000  1.0
  Rb  Rb13  1  0.32691000  0.65862000  0.01014000  1.0
  Rb  Rb14  1  0.02904000  0.38162000  0.26864000  1.0
  Rb  Rb15  1  0.67309000  0.15862000  0.48986000  1.0
  Na  Na16  1  0.40700000  0.25550000  0.52060000  1.0
  Na  Na17  1  0.59300000  0.75550000  0.97940000  1.0
  Na  Na18  1  0.59300000  0.74450000  0.47940000  1.0
  Na  Na19  1  0.40700000  0.24450000  0.02060000  1.0
  Y  Y20  1  0.95335000  0.11049000  0.92627000  1.0
  Y  Y21  1  0.04665000  0.61049000  0.57373000  1.0
  Y  Y22  1  0.04665000  0.88951000  0.07373000  1.0
  Y  Y23  1  0.95335000  0.38951000  0.42627000  1.0
  Ge  Ge24  1  0.75503000  0.12850000  0.76695000  1.0
  Ge  Ge25  1  0.24497000  0.62850000  0.73305000  1.0
  Ge  Ge26  1  0.24497000  0.87150000  0.23305000  1.0
  Ge  Ge27  1  0.75503000  0.37150000  0.26695000  1.0
  H  H28  1  0.14340000  0.86560000  0.96220000  1.0
  H  H29  1  0.11880000  0.88780000  0.88430000  1.0
  H  H30  1  0.17550000  0.96110000  0.93560000  1.0
  H  H31  1  0.85660000  0.36560000  0.53780000  1.0
  H  H32  1  0.88120000  0.38780000  0.61570000  1.0
  H  H33  1  0.82450000  0.46110000  0.56440000  1.0
  H  H34  1  0.85660000  0.13440000  0.03780000  1.0
  H  H35  1  0.88120000  0.11220000  0.11570000  1.0
  H  H36  1  0.82450000  0.03890000  0.06440000  1.0
  H  H37  1  0.14340000  0.63440000  0.46220000  1.0
  H  H38  1  0.11880000  0.61220000  0.38430000  1.0
  H  H39  1  0.17550000  0.53890000  0.43560000  1.0
  W  W40  1  0.58627000  0.15086000  0.63110000  1.0
  W  W41  1  0.62305000  0.92723000  0.75431000  1.0
  W  W42  1  0.71521000  0.93871000  0.63011000  1.0
  W  W43  1  0.83848000  0.12490000  0.64702000  1.0
  W  W44  1  0.71164000  0.33549000  0.64788000  1.0
  W  W45  1  0.63007000  0.32854000  0.76040000  1.0
  W  W46  1  0.66266000  0.10557000  0.87993000  1.0
  W  W47  1  0.78417000  0.92035000  0.88336000  1.0
  W  W48  1  0.87471000  0.92614000  0.76152000  1.0
  W  W49  1  0.88939000  0.31811000  0.79169000  1.0
  W  W50  1  0.80866000  0.30278000  0.90287000  1.0
  W  W51  1  0.41373000  0.65086000  0.86890000  1.0
  W  W52  1  0.37695000  0.42723000  0.74569000  1.0
  W  W53  1  0.28479000  0.43871000  0.86989000  1.0
  W  W54  1  0.16152000  0.62490000  0.85298000  1.0
  W  W55  1  0.28836000  0.83549000  0.85212000  1.0
  W  W56  1  0.36993000  0.82854000  0.73960000  1.0
  W  W57  1  0.33734000  0.60557000  0.62007000  1.0
  W  W58  1  0.21583000  0.42035000  0.61664000  1.0
  W  W59  1  0.12529000  0.42614000  0.73848000  1.0
  W  W60  1  0.11061000  0.81811000  0.70831000  1.0
  W  W61  1  0.19134000  0.80278000  0.59713000  1.0
  W  W62  1  0.41373000  0.84914000  0.36890000  1.0
  W  W63  1  0.37695000  0.07277000  0.24569000  1.0
  W  W64  1  0.28479000  0.06129000  0.36989000  1.0
  W  W65  1  0.16152000  0.87510000  0.35298000  1.0
  W  W66  1  0.28836000  0.66451000  0.35212000  1.0
  W  W67  1  0.36993000  0.67146000  0.23960000  1.0
  W  W68  1  0.33734000  0.89443000  0.12007000  1.0
  W  W69  1  0.21583000  0.07965000  0.11664000  1.0
  W  W70  1  0.12529000  0.07386000  0.23848000  1.0
  W  W71  1  0.11061000  0.68189000  0.20831000  1.0
  W  W72  1  0.19134000  0.69722000  0.09713000  1.0
  W  W73  1  0.58627000  0.34914000  0.13110000  1.0
  W  W74  1  0.62305000  0.57277000  0.25431000  1.0
  W  W75  1  0.71521000  0.56129000  0.13011000  1.0
  W  W76  1  0.83848000  0.37510000  0.14702000  1.0
  W  W77  1  0.71164000  0.16451000  0.14788000  1.0
  W  W78  1  0.63007000  0.17146000  0.26040000  1.0
  W  W79  1  0.66266000  0.39443000  0.37993000  1.0
  W  W80  1  0.78417000  0.57965000  0.38336000  1.0
  W  W81  1  0.87471000  0.57386000  0.26152000  1.0
  W  W82  1  0.88939000  0.18189000  0.29169000  1.0
  W  W83  1  0.80866000  0.19722000  0.40287000  1.0
  C  C84  1  0.07430000  0.99060000  0.93280000  1.0
  C  C85  1  0.13350000  0.91970000  0.92830000  1.0
  C  C86  1  0.92570000  0.49060000  0.56720000  1.0
  C  C87  1  0.86650000  0.41970000  0.57170000  1.0
  C  C88  1  0.92570000  0.00940000  0.06720000  1.0
  C  C89  1  0.86650000  0.08030000  0.07170000  1.0
  C  C90  1  0.07430000  0.50940000  0.43280000  1.0
  C  C91  1  0.13350000  0.58030000  0.42830000  1.0
  O  O92  1  0.50530000  0.12900000  0.56650000  1.0
  O  O93  1  0.55530000  0.83820000  0.72780000  1.0
  O  O94  1  0.67540000  0.85660000  0.56320000  1.0
  O  O95  1  0.64890000  0.05550000  0.60950000  1.0
  O  O96  1  0.58350000  0.04660000  0.69670000  1.0
  O  O97  1  0.67260000  0.90040000  0.69430000  1.0
  O  O98  1  0.76980000  0.02510000  0.59080000  1.0
  O  O99  1  0.62310000  0.26230000  0.59240000  1.0
  O  O100  1  0.55720000  0.25430000  0.68200000  1.0
  O  O101  1  0.59740000  0.00470000  0.82280000  1.0
  O  O102  1  0.69000000  0.85240000  0.82380000  1.0
  O  O103  1  0.79640000  0.86300000  0.67810000  1.0
  O  O104  1  0.68790000  0.21030000  0.71420000  1.0
  O  O105  1  0.71580000  0.04400000  0.80890000  1.0
  O  O106  1  0.78650000  0.05090000  0.71560000  1.0
  O  O107  1  0.76210000  0.22440000  0.62020000  1.0
  O  O108  1  0.65210000  0.40280000  0.69130000  1.0
  O  O109  1  0.57770000  0.42300000  0.77730000  1.0
  O  O110  1  0.61850000  0.21030000  0.81300000  1.0
  O  O111  1  0.62220000  0.13120000  0.93730000  1.0
  O  O112  1  0.72340000  0.98910000  0.92470000  1.0
  O  O113  1  0.81360000  0.81530000  0.93990000  1.0
  O  O114  1  0.81560000  0.88190000  0.81020000  1.0
  O  O115  1  0.93280000  0.81980000  0.77330000  1.0
  O  O116  1  0.89680000  0.00770000  0.69250000  1.0
  O  O117  1  0.88370000  0.21440000  0.72120000  1.0
  O  O118  1  0.79260000  0.36080000  0.71970000  1.0
  O  O119  1  0.71670000  0.34920000  0.82350000  1.0
  O  O120  1  0.74210000  0.19830000  0.91090000  1.0
  O  O121  1  0.85260000  0.01390000  0.91360000  1.0
  O  O122  1  0.92230000  0.01580000  0.82560000  1.0
  O  O123  1  0.82180000  0.20310000  0.82250000  1.0
  O  O124  1  0.93480000  0.42030000  0.77210000  1.0
  O  O125  1  0.85690000  0.38920000  0.85660000  1.0
  O  O126  1  0.79700000  0.39790000  0.95590000  1.0
  O  O127  1  0.88770000  0.24110000  0.95480000  1.0
  O  O128  1  0.95970000  0.24730000  0.85350000  1.0
  O  O129  1  0.03210000  0.95700000  0.96200000  1.0
  O  O130  1  0.06650000  0.07970000  0.90710000  1.0
  O  O131  1  0.17560000  0.10350000  0.81910000  1.0
  O  O132  1  0.36740000  0.19890000  0.61040000  1.0
  O  O133  1  0.68470000  0.87820000  0.01970000  1.0
  O  O134  1  0.49470000  0.62900000  0.93350000  1.0
  O  O135  1  0.44470000  0.33820000  0.77220000  1.0
  O  O136  1  0.32460000  0.35660000  0.93680000  1.0
  O  O137  1  0.35110000  0.55550000  0.89050000  1.0
  O  O138  1  0.41650000  0.54660000  0.80330000  1.0
  O  O139  1  0.32740000  0.40040000  0.80570000  1.0
  O  O140  1  0.23020000  0.52510000  0.90920000  1.0
  O  O141  1  0.37690000  0.76230000  0.90760000  1.0
  O  O142  1  0.44280000  0.75430000  0.81800000  1.0
  O  O143  1  0.40260000  0.50470000  0.67720000  1.0
  O  O144  1  0.31000000  0.35240000  0.67620000  1.0
  O  O145  1  0.20360000  0.36300000  0.82190000  1.0
  O  O146  1  0.31210000  0.71030000  0.78580000  1.0
  O  O147  1  0.28420000  0.54400000  0.69110000  1.0
  O  O148  1  0.21350000  0.55090000  0.78440000  1.0
  O  O149  1  0.23790000  0.72440000  0.87980000  1.0
  O  O150  1  0.34790000  0.90280000  0.80870000  1.0
  O  O151  1  0.42230000  0.92300000  0.72270000  1.0
  O  O152  1  0.38150000  0.71030000  0.68700000  1.0
  O  O153  1  0.37780000  0.63120000  0.56270000  1.0
  O  O154  1  0.27660000  0.48910000  0.57530000  1.0
  O  O155  1  0.18640000  0.31530000  0.56010000  1.0
  O  O156  1  0.18440000  0.38190000  0.68980000  1.0
  O  O157  1  0.06720000  0.31980000  0.72670000  1.0
  O  O158  1  0.10320000  0.50770000  0.80750000  1.0
  O  O159  1  0.11630000  0.71440000  0.77880000  1.0
  O  O160  1  0.20740000  0.86080000  0.78030000  1.0
  O  O161  1  0.28330000  0.84920000  0.67650000  1.0
  O  O162  1  0.25790000  0.69830000  0.58910000  1.0
  O  O163  1  0.14740000  0.51390000  0.58640000  1.0
  O  O164  1  0.07770000  0.51580000  0.67440000  1.0
  O  O165  1  0.17820000  0.70310000  0.67750000  1.0
  O  O166  1  0.06520000  0.92030000  0.72790000  1.0
  O  O167  1  0.14310000  0.88920000  0.64340000  1.0
  O  O168  1  0.20300000  0.89790000  0.54410000  1.0
  O  O169  1  0.11230000  0.74110000  0.54520000  1.0
  O  O170  1  0.04030000  0.74730000  0.64650000  1.0
  O  O171  1  0.96790000  0.45700000  0.53800000  1.0
  O  O172  1  0.93350000  0.57970000  0.59290000  1.0
  O  O173  1  0.82440000  0.60350000  0.68090000  1.0
  O  O174  1  0.63260000  0.69890000  0.88960000  1.0
  O  O175  1  0.31530000  0.37820000  0.48030000  1.0
  O  O176  1  0.49470000  0.87100000  0.43350000  1.0
  O  O177  1  0.44470000  0.16180000  0.27220000  1.0
  O  O178  1  0.32460000  0.14340000  0.43680000  1.0
  O  O179  1  0.35110000  0.94450000  0.39050000  1.0
  O  O180  1  0.41650000  0.95340000  0.30330000  1.0
  O  O181  1  0.32740000  0.09960000  0.30570000  1.0
  O  O182  1  0.23020000  0.97490000  0.40920000  1.0
  O  O183  1  0.37690000  0.73770000  0.40760000  1.0
  O  O184  1  0.44280000  0.74570000  0.31800000  1.0
  O  O185  1  0.40260000  0.99530000  0.17720000  1.0
  O  O186  1  0.31000000  0.14760000  0.17620000  1.0
  O  O187  1  0.20360000  0.13700000  0.32190000  1.0
  O  O188  1  0.31210000  0.78970000  0.28580000  1.0
  O  O189  1  0.28420000  0.95600000  0.19110000  1.0
  O  O190  1  0.21350000  0.94910000  0.28440000  1.0
  O  O191  1  0.23790000  0.77560000  0.37980000  1.0
  O  O192  1  0.34790000  0.59720000  0.30870000  1.0
  O  O193  1  0.42230000  0.57700000  0.22270000  1.0
  O  O194  1  0.38150000  0.78970000  0.18700000  1.0
  O  O195  1  0.37780000  0.86880000  0.06270000  1.0
  O  O196  1  0.27660000  0.01090000  0.07530000  1.0
  O  O197  1  0.18640000  0.18470000  0.06010000  1.0
  O  O198  1  0.18440000  0.11810000  0.18980000  1.0
  O  O199  1  0.06720000  0.18020000  0.22670000  1.0
  O  O200  1  0.10320000  0.99230000  0.30750000  1.0
  O  O201  1  0.11630000  0.78560000  0.27880000  1.0
  O  O202  1  0.20740000  0.63920000  0.28030000  1.0
  O  O203  1  0.28330000  0.65080000  0.17650000  1.0
  O  O204  1  0.25790000  0.80170000  0.08910000  1.0
  O  O205  1  0.14740000  0.98610000  0.08640000  1.0
  O  O206  1  0.07770000  0.98420000  0.17440000  1.0
  O  O207  1  0.17820000  0.79690000  0.17750000  1.0
  O  O208  1  0.06520000  0.57970000  0.22790000  1.0
  O  O209  1  0.14310000  0.61080000  0.14340000  1.0
  O  O210  1  0.20300000  0.60210000  0.04410000  1.0
  O  O211  1  0.11230000  0.75890000  0.04520000  1.0
  O  O212  1  0.04030000  0.75270000  0.14650000  1.0
  O  O213  1  0.96790000  0.04300000  0.03800000  1.0
  O  O214  1  0.93350000  0.92030000  0.09290000  1.0
  O  O215  1  0.82440000  0.89650000  0.18090000  1.0
  O  O216  1  0.63260000  0.80110000  0.38960000  1.0
  O  O217  1  0.31530000  0.12180000  0.98030000  1.0
  O  O218  1  0.50530000  0.37100000  0.06650000  1.0
  O  O219  1  0.55530000  0.66180000  0.22780000  1.0
  O  O220  1  0.67540000  0.64340000  0.06320000  1.0
  O  O221  1  0.64890000  0.44450000  0.10950000  1.0
  O  O222  1  0.58350000  0.45340000  0.19670000  1.0
  O  O223  1  0.67260000  0.59960000  0.19430000  1.0
  O  O224  1  0.76980000  0.47490000  0.09080000  1.0
  O  O225  1  0.62310000  0.23770000  0.09240000  1.0
  O  O226  1  0.55720000  0.24570000  0.18200000  1.0
  O  O227  1  0.59740000  0.49530000  0.32280000  1.0
  O  O228  1  0.69000000  0.64760000  0.32380000  1.0
  O  O229  1  0.79640000  0.63700000  0.17810000  1.0
  O  O230  1  0.68790000  0.28970000  0.21420000  1.0
  O  O231  1  0.71580000  0.45600000  0.30890000  1.0
  O  O232  1  0.78650000  0.44910000  0.21560000  1.0
  O  O233  1  0.76210000  0.27560000  0.12020000  1.0
  O  O234  1  0.65210000  0.09720000  0.19130000  1.0
  O  O235  1  0.57770000  0.07700000  0.27730000  1.0
  O  O236  1  0.61850000  0.28970000  0.31300000  1.0
  O  O237  1  0.62220000  0.36880000  0.43730000  1.0
  O  O238  1  0.72340000  0.51090000  0.42470000  1.0
  O  O239  1  0.81360000  0.68470000  0.43990000  1.0
  O  O240  1  0.81560000  0.61810000  0.31020000  1.0
  O  O241  1  0.93280000  0.68020000  0.27330000  1.0
  O  O242  1  0.89680000  0.49230000  0.19250000  1.0
  O  O243  1  0.88370000  0.28560000  0.22120000  1.0
  O  O244  1  0.79260000  0.13920000  0.21970000  1.0
  O  O245  1  0.71670000  0.15080000  0.32350000  1.0
  O  O246  1  0.74210000  0.30170000  0.41090000  1.0
  O  O247  1  0.85260000  0.48610000  0.41360000  1.0
  O  O248  1  0.92230000  0.48420000  0.32560000  1.0
  O  O249  1  0.82180000  0.29690000  0.32250000  1.0
  O  O250  1  0.93480000  0.07970000  0.27210000  1.0
  O  O251  1  0.85690000  0.11080000  0.35660000  1.0
  O  O252  1  0.79700000  0.10210000  0.45590000  1.0
  O  O253  1  0.88770000  0.25890000  0.45480000  1.0
  O  O254  1  0.95970000  0.25270000  0.35350000  1.0
  O  O255  1  0.03210000  0.54300000  0.46200000  1.0
  O  O256  1  0.06650000  0.42030000  0.40710000  1.0
  O  O257  1  0.17560000  0.39650000  0.31910000  1.0
  O  O258  1  0.36740000  0.30110000  0.11040000  1.0
  O  O259  1  0.68470000  0.62180000  0.51970000  1.0
