# generated using pymatgen
data_Cd3CuH46C50(N2O7)2
_symmetry_space_group_name_H-M   'P 1'
_cell_length_a   10.35620000
_cell_length_b   17.89790000
_cell_length_c   44.13830000
_cell_angle_alpha   90.00000000
_cell_angle_beta   90.00000000
_cell_angle_gamma   90.00000000
_symmetry_Int_Tables_number   1
_chemical_formula_structural   Cd3CuH46C50(N2O7)2
_chemical_formula_sum   'Cd12 Cu4 H184 C200 N16 O56'
_cell_volume   8181.22069740
_cell_formula_units_Z   4
loop_
 _symmetry_equiv_pos_site_id
 _symmetry_equiv_pos_as_xyz
  1  'x, y, z'
loop_
 _atom_site_type_symbol
 _atom_site_label
 _atom_site_symmetry_multiplicity
 _atom_site_fract_x
 _atom_site_fract_y
 _atom_site_fract_z
 _atom_site_occupancy
  Cd  Cd0  1  0.15411000  0.00397000  0.92211000  1.0
  Cd  Cd1  1  0.24219000  0.99962000  0.00175000  1.0
  Cd  Cd2  1  0.32634000  0.99667000  0.08218000  1.0
  Cd  Cd3  1  0.34589000  0.99603000  0.42211000  1.0
  Cd  Cd4  1  0.25781000  0.00038000  0.50175000  1.0
  Cd  Cd5  1  0.17366000  0.00333000  0.58218000  1.0
  Cd  Cd6  1  0.84589000  0.50397000  0.57789000  1.0
  Cd  Cd7  1  0.75781000  0.49962000  0.49825000  1.0
  Cd  Cd8  1  0.67366000  0.49667000  0.41782000  1.0
  Cd  Cd9  1  0.65411000  0.49603000  0.07789000  1.0
  Cd  Cd10  1  0.74219000  0.50038000  0.99825000  1.0
  Cd  Cd11  1  0.82634000  0.50333000  0.91782000  1.0
  Cu  Cu12  1  0.02718000  0.06723000  0.75218000  1.0
  Cu  Cu13  1  0.47282000  0.93277000  0.25218000  1.0
  Cu  Cu14  1  0.97282000  0.56723000  0.74782000  1.0
  Cu  Cu15  1  0.52718000  0.43277000  0.24782000  1.0
  H  H16  1  0.49020000  0.83130000  0.99070000  1.0
  H  H17  1  0.61820000  0.72520000  0.99070000  1.0
  H  H18  1  0.48340000  0.66990000  0.90820000  1.0
  H  H19  1  0.35600000  0.77690000  0.90760000  1.0
  H  H20  1  0.76000000  0.10570000  0.97110000  1.0
  H  H21  1  0.57370000  0.08800000  0.99970000  1.0
  H  H22  1  0.72190000  0.89440000  0.03280000  1.0
  H  H23  1  0.90660000  0.91340000  0.00460000  1.0
  H  H24  1  0.98710000  0.15920000  0.01080000  1.0
  H  H25  1  0.86570000  0.26810000  0.00670000  1.0
  H  H26  1  0.99960000  0.33490000  0.08860000  1.0
  H  H27  1  0.12090000  0.22540000  0.09220000  1.0
  H  H28  1  0.99720000  0.98940000  0.63950000  1.0
  H  H29  1  0.89520000  0.96850000  0.68400000  1.0
  H  H30  1  0.86590000  0.91280000  0.74630000  1.0
  H  H31  1  0.73800000  0.91150000  0.70180000  1.0
  H  H32  1  0.67070000  0.98850000  0.71160000  1.0
  H  H33  1  0.53240000  0.88810000  0.72570000  1.0
  H  H34  1  0.64700000  0.84910000  0.74430000  1.0
  H  H35  1  0.50950000  0.91100000  0.77840000  1.0
  H  H36  1  0.52720000  0.98790000  0.76030000  1.0
  H  H37  1  0.66260000  0.99000000  0.80390000  1.0
  H  H38  1  0.73100000  0.91370000  0.79340000  1.0
  H  H39  1  0.73730000  0.05030000  0.75910000  1.0
  H  H40  1  0.85940000  0.99420000  0.82130000  1.0
  H  H41  1  0.97970000  0.99620000  0.86440000  1.0
  H  H42  1  0.30420000  0.10630000  0.87440000  1.0
  H  H43  1  0.31350000  0.10790000  0.63080000  1.0
  H  H44  1  0.40100000  0.21470000  0.85980000  1.0
  H  H45  1  0.51710000  0.21290000  0.83590000  1.0
  H  H46  1  0.48080000  0.13920000  0.85460000  1.0
  H  H47  1  0.46240000  0.06790000  0.80610000  1.0
  H  H48  1  0.50300000  0.14250000  0.78850000  1.0
  H  H49  1  0.37350000  0.09940000  0.77930000  1.0
  H  H50  1  0.25270000  0.26160000  0.82000000  1.0
  H  H51  1  0.24350000  0.21920000  0.78810000  1.0
  H  H52  1  0.37340000  0.26190000  0.79730000  1.0
  H  H53  1  0.26240000  0.25530000  0.68920000  1.0
  H  H54  1  0.38410000  0.25290000  0.71150000  1.0
  H  H55  1  0.25490000  0.20850000  0.72010000  1.0
  H  H56  1  0.47200000  0.06140000  0.69820000  1.0
  H  H57  1  0.38190000  0.08910000  0.72550000  1.0
  H  H58  1  0.51120000  0.13390000  0.71740000  1.0
  H  H59  1  0.40500000  0.21480000  0.64820000  1.0
  H  H60  1  0.48930000  0.14030000  0.65120000  1.0
  H  H61  1  0.52300000  0.21170000  0.67150000  1.0
  H  H62  1  0.00980000  0.16870000  0.49070000  1.0
  H  H63  1  0.88180000  0.27480000  0.49070000  1.0
  H  H64  1  0.01660000  0.33010000  0.40820000  1.0
  H  H65  1  0.14400000  0.22310000  0.40760000  1.0
  H  H66  1  0.74000000  0.89430000  0.47110000  1.0
  H  H67  1  0.92630000  0.91200000  0.49970000  1.0
  H  H68  1  0.77810000  0.10560000  0.53280000  1.0
  H  H69  1  0.59340000  0.08660000  0.50460000  1.0
  H  H70  1  0.51290000  0.84080000  0.51080000  1.0
  H  H71  1  0.63430000  0.73190000  0.50670000  1.0
  H  H72  1  0.50040000  0.66510000  0.58860000  1.0
  H  H73  1  0.37910000  0.77460000  0.59220000  1.0
  H  H74  1  0.50280000  0.01060000  0.13950000  1.0
  H  H75  1  0.60480000  0.03150000  0.18400000  1.0
  H  H76  1  0.63410000  0.08720000  0.24630000  1.0
  H  H77  1  0.76200000  0.08850000  0.20180000  1.0
  H  H78  1  0.82930000  0.01150000  0.21160000  1.0
  H  H79  1  0.96760000  0.11190000  0.22570000  1.0
  H  H80  1  0.85300000  0.15090000  0.24430000  1.0
  H  H81  1  0.99050000  0.08900000  0.27840000  1.0
  H  H82  1  0.97280000  0.01210000  0.26030000  1.0
  H  H83  1  0.83740000  0.01000000  0.30390000  1.0
  H  H84  1  0.76900000  0.08630000  0.29340000  1.0
  H  H85  1  0.76270000  0.94970000  0.25910000  1.0
  H  H86  1  0.64060000  0.00580000  0.32130000  1.0
  H  H87  1  0.52030000  0.00380000  0.36440000  1.0
  H  H88  1  0.19580000  0.89370000  0.37440000  1.0
  H  H89  1  0.18650000  0.89210000  0.13080000  1.0
  H  H90  1  0.09900000  0.78530000  0.35980000  1.0
  H  H91  1  0.98290000  0.78710000  0.33590000  1.0
  H  H92  1  0.01920000  0.86080000  0.35460000  1.0
  H  H93  1  0.03760000  0.93210000  0.30610000  1.0
  H  H94  1  0.99700000  0.85750000  0.28850000  1.0
  H  H95  1  0.12650000  0.90060000  0.27930000  1.0
  H  H96  1  0.24730000  0.73840000  0.32000000  1.0
  H  H97  1  0.25650000  0.78080000  0.28810000  1.0
  H  H98  1  0.12660000  0.73810000  0.29730000  1.0
  H  H99  1  0.23760000  0.74470000  0.18920000  1.0
  H  H100  1  0.11590000  0.74710000  0.21150000  1.0
  H  H101  1  0.24510000  0.79150000  0.22010000  1.0
  H  H102  1  0.02800000  0.93860000  0.19820000  1.0
  H  H103  1  0.11810000  0.91090000  0.22550000  1.0
  H  H104  1  0.98880000  0.86610000  0.21740000  1.0
  H  H105  1  0.09500000  0.78520000  0.14820000  1.0
  H  H106  1  0.01070000  0.85970000  0.15120000  1.0
  H  H107  1  0.97700000  0.78830000  0.17150000  1.0
  H  H108  1  0.50980000  0.33130000  0.50930000  1.0
  H  H109  1  0.38180000  0.22520000  0.50930000  1.0
  H  H110  1  0.51660000  0.16990000  0.59180000  1.0
  H  H111  1  0.64400000  0.27690000  0.59240000  1.0
  H  H112  1  0.24000000  0.60570000  0.52890000  1.0
  H  H113  1  0.42630000  0.58800000  0.50030000  1.0
  H  H114  1  0.27810000  0.39440000  0.46720000  1.0
  H  H115  1  0.09340000  0.41340000  0.49540000  1.0
  H  H116  1  0.01290000  0.65920000  0.48920000  1.0
  H  H117  1  0.13430000  0.76810000  0.49330000  1.0
  H  H118  1  0.00040000  0.83490000  0.41140000  1.0
  H  H119  1  0.87910000  0.72540000  0.40780000  1.0
  H  H120  1  0.00280000  0.48940000  0.86050000  1.0
  H  H121  1  0.10480000  0.46850000  0.81600000  1.0
  H  H122  1  0.13410000  0.41280000  0.75370000  1.0
  H  H123  1  0.26200000  0.41150000  0.79820000  1.0
  H  H124  1  0.32930000  0.48850000  0.78840000  1.0
  H  H125  1  0.46760000  0.38810000  0.77430000  1.0
  H  H126  1  0.35300000  0.34910000  0.75570000  1.0
  H  H127  1  0.49050000  0.41100000  0.72160000  1.0
  H  H128  1  0.47280000  0.48790000  0.73970000  1.0
  H  H129  1  0.33740000  0.49000000  0.69610000  1.0
  H  H130  1  0.26900000  0.41370000  0.70660000  1.0
  H  H131  1  0.26270000  0.55030000  0.74090000  1.0
  H  H132  1  0.14060000  0.49420000  0.67870000  1.0
  H  H133  1  0.02030000  0.49620000  0.63560000  1.0
  H  H134  1  0.69580000  0.60630000  0.62560000  1.0
  H  H135  1  0.68650000  0.60790000  0.86920000  1.0
  H  H136  1  0.59900000  0.71470000  0.64020000  1.0
  H  H137  1  0.48290000  0.71290000  0.66410000  1.0
  H  H138  1  0.51920000  0.63920000  0.64540000  1.0
  H  H139  1  0.53760000  0.56790000  0.69390000  1.0
  H  H140  1  0.49700000  0.64250000  0.71150000  1.0
  H  H141  1  0.62650000  0.59940000  0.72070000  1.0
  H  H142  1  0.74730000  0.76160000  0.68000000  1.0
  H  H143  1  0.75650000  0.71920000  0.71190000  1.0
  H  H144  1  0.62660000  0.76190000  0.70270000  1.0
  H  H145  1  0.73760000  0.75530000  0.81080000  1.0
  H  H146  1  0.61590000  0.75290000  0.78850000  1.0
  H  H147  1  0.74510000  0.70850000  0.77990000  1.0
  H  H148  1  0.52800000  0.56140000  0.80180000  1.0
  H  H149  1  0.61810000  0.58910000  0.77450000  1.0
  H  H150  1  0.48880000  0.63390000  0.78260000  1.0
  H  H151  1  0.59500000  0.71480000  0.85180000  1.0
  H  H152  1  0.51070000  0.64030000  0.84880000  1.0
  H  H153  1  0.47700000  0.71170000  0.82850000  1.0
  H  H154  1  0.99020000  0.66870000  0.00930000  1.0
  H  H155  1  0.11820000  0.77480000  0.00930000  1.0
  H  H156  1  0.98340000  0.83010000  0.09180000  1.0
  H  H157  1  0.85600000  0.72310000  0.09240000  1.0
  H  H158  1  0.26000000  0.39430000  0.02890000  1.0
  H  H159  1  0.07370000  0.41200000  0.00030000  1.0
  H  H160  1  0.22190000  0.60560000  0.96720000  1.0
  H  H161  1  0.40660000  0.58660000  0.99540000  1.0
  H  H162  1  0.48710000  0.34080000  0.98920000  1.0
  H  H163  1  0.36570000  0.23190000  0.99330000  1.0
  H  H164  1  0.49960000  0.16510000  0.91140000  1.0
  H  H165  1  0.62090000  0.27460000  0.90780000  1.0
  H  H166  1  0.49720000  0.51060000  0.36050000  1.0
  H  H167  1  0.39520000  0.53150000  0.31600000  1.0
  H  H168  1  0.36590000  0.58720000  0.25370000  1.0
  H  H169  1  0.23800000  0.58850000  0.29820000  1.0
  H  H170  1  0.17070000  0.51150000  0.28840000  1.0
  H  H171  1  0.03240000  0.61190000  0.27430000  1.0
  H  H172  1  0.14700000  0.65090000  0.25570000  1.0
  H  H173  1  0.00950000  0.58900000  0.22160000  1.0
  H  H174  1  0.02720000  0.51210000  0.23970000  1.0
  H  H175  1  0.16260000  0.51000000  0.19610000  1.0
  H  H176  1  0.23100000  0.58630000  0.20660000  1.0
  H  H177  1  0.23730000  0.44970000  0.24090000  1.0
  H  H178  1  0.35940000  0.50580000  0.17870000  1.0
  H  H179  1  0.47970000  0.50380000  0.13560000  1.0
  H  H180  1  0.80420000  0.39370000  0.12560000  1.0
  H  H181  1  0.81350000  0.39210000  0.36920000  1.0
  H  H182  1  0.90100000  0.28530000  0.14020000  1.0
  H  H183  1  0.01710000  0.28710000  0.16410000  1.0
  H  H184  1  0.98080000  0.36080000  0.14540000  1.0
  H  H185  1  0.96240000  0.43210000  0.19390000  1.0
  H  H186  1  0.00300000  0.35750000  0.21150000  1.0
  H  H187  1  0.87350000  0.40060000  0.22070000  1.0
  H  H188  1  0.75270000  0.23840000  0.18000000  1.0
  H  H189  1  0.74350000  0.28080000  0.21190000  1.0
  H  H190  1  0.87340000  0.23810000  0.20270000  1.0
  H  H191  1  0.76240000  0.24470000  0.31080000  1.0
  H  H192  1  0.88410000  0.24710000  0.28850000  1.0
  H  H193  1  0.75490000  0.29150000  0.27990000  1.0
  H  H194  1  0.97200000  0.43860000  0.30180000  1.0
  H  H195  1  0.88190000  0.41090000  0.27450000  1.0
  H  H196  1  0.01120000  0.36610000  0.28260000  1.0
  H  H197  1  0.90500000  0.28520000  0.35180000  1.0
  H  H198  1  0.98930000  0.35970000  0.34880000  1.0
  H  H199  1  0.02300000  0.28830000  0.32850000  1.0
  C  C200  1  0.34080000  0.88910000  0.94821000  1.0
  C  C201  1  0.41290000  0.81600000  0.94898000  1.0
  C  C202  1  0.48960000  0.79900000  0.97360000  1.0
  C  C203  1  0.56530000  0.73590000  0.97366000  1.0
  C  C204  1  0.56510000  0.68810000  0.94934000  1.0
  C  C205  1  0.48570000  0.70340000  0.92491000  1.0
  C  C206  1  0.41000000  0.76680000  0.92449000  1.0
  C  C207  1  0.65520000  0.62140000  0.94913000  1.0
  C  C208  1  0.96720000  0.01860000  0.96498000  1.0
  C  C209  1  0.85210000  0.01080000  0.98491000  1.0
  C  C210  1  0.75210000  0.06290000  0.98367000  1.0
  C  C211  1  0.64160000  0.05240000  0.00071000  1.0
  C  C212  1  0.62930000  0.99000000  0.01938000  1.0
  C  C213  1  0.72960000  0.93760000  0.02042000  1.0
  C  C214  1  0.83850000  0.94890000  0.00356000  1.0
  C  C215  1  0.51450000  0.98250000  0.03945000  1.0
  C  C216  1  0.13510000  0.10840000  0.05484000  1.0
  C  C217  1  0.06330000  0.18080000  0.05238000  1.0
  C  C218  1  0.98850000  0.19470000  0.02684000  1.0
  C  C219  1  0.91640000  0.25930000  0.02432000  1.0
  C  C220  1  0.91840000  0.31170000  0.04788000  1.0
  C  C221  1  0.99570000  0.29890000  0.07277000  1.0
  C  C222  1  0.06790000  0.23360000  0.07493000  1.0
  C  C223  1  0.83120000  0.37780000  0.04616000  1.0
  C  C224  1  0.06340000  0.01880000  0.64845000  1.0
  C  C225  1  0.05540000  0.03400000  0.67961000  1.0
  C  C226  1  0.95200000  0.99910000  0.69541000  1.0
  C  C227  1  0.82660000  0.96070000  0.73910000  1.0
  C  C228  1  0.71010000  0.94190000  0.71933000  1.0
  C  C229  1  0.60990000  0.89780000  0.73824000  1.0
  C  C230  1  0.57120000  0.94110000  0.76637000  1.0
  C  C231  1  0.68940000  0.96010000  0.78606000  1.0
  C  C232  1  0.78360000  0.00480000  0.76654000  1.0
  C  C233  1  0.92380000  0.01960000  0.80993000  1.0
  C  C234  1  0.03980000  0.04440000  0.82565000  1.0
  C  C235  1  0.04750000  0.02540000  0.85599000  1.0
  C  C236  1  0.23650000  0.08940000  0.86160000  1.0
  C  C237  1  0.24000000  0.11170000  0.83130000  1.0
  C  C238  1  0.13850000  0.08700000  0.81182000  1.0
  C  C239  1  0.15260000  0.07910000  0.69357000  1.0
  C  C240  1  0.24820000  0.08810000  0.64362000  1.0
  C  C241  1  0.25170000  0.10720000  0.67424000  1.0
  C  C242  1  0.35180000  0.16110000  0.81978000  1.0
  C  C243  1  0.44610000  0.18400000  0.84475000  1.0
  C  C244  1  0.43000000  0.11320000  0.79619000  1.0
  C  C245  1  0.30080000  0.23230000  0.80497000  1.0
  C  C246  1  0.36260000  0.15470000  0.68680000  1.0
  C  C247  1  0.31140000  0.22410000  0.70340000  1.0
  C  C248  1  0.43880000  0.10530000  0.70898000  1.0
  C  C249  1  0.45300000  0.18290000  0.66227000  1.0
  C  C250  1  0.15920000  0.11090000  0.44821000  1.0
  C  C251  1  0.08710000  0.18400000  0.44898000  1.0
  C  C252  1  0.01040000  0.20100000  0.47360000  1.0
  C  C253  1  0.93470000  0.26410000  0.47366000  1.0
  C  C254  1  0.93490000  0.31190000  0.44934000  1.0
  C  C255  1  0.01430000  0.29660000  0.42491000  1.0
  C  C256  1  0.09000000  0.23320000  0.42449000  1.0
  C  C257  1  0.84480000  0.37860000  0.44913000  1.0
  C  C258  1  0.53280000  0.98140000  0.46498000  1.0
  C  C259  1  0.64790000  0.98920000  0.48491000  1.0
  C  C260  1  0.74790000  0.93710000  0.48367000  1.0
  C  C261  1  0.85840000  0.94760000  0.50071000  1.0
  C  C262  1  0.87070000  0.01000000  0.51938000  1.0
  C  C263  1  0.77040000  0.06240000  0.52042000  1.0
  C  C264  1  0.66150000  0.05110000  0.50356000  1.0
  C  C265  1  0.98550000  0.01750000  0.53945000  1.0
  C  C266  1  0.36490000  0.89160000  0.55484000  1.0
  C  C267  1  0.43670000  0.81920000  0.55238000  1.0
  C  C268  1  0.51150000  0.80530000  0.52684000  1.0
  C  C269  1  0.58360000  0.74070000  0.52432000  1.0
  C  C270  1  0.58160000  0.68830000  0.54788000  1.0
  C  C271  1  0.50430000  0.70110000  0.57277000  1.0
  C  C272  1  0.43210000  0.76640000  0.57493000  1.0
  C  C273  1  0.66880000  0.62220000  0.54616000  1.0
  C  C274  1  0.43660000  0.98120000  0.14845000  1.0
  C  C275  1  0.44460000  0.96600000  0.17961000  1.0
  C  C276  1  0.54800000  0.00090000  0.19541000  1.0
  C  C277  1  0.67340000  0.03930000  0.23910000  1.0
  C  C278  1  0.78990000  0.05810000  0.21933000  1.0
  C  C279  1  0.89010000  0.10220000  0.23824000  1.0
  C  C280  1  0.92880000  0.05890000  0.26637000  1.0
  C  C281  1  0.81060000  0.03990000  0.28606000  1.0
  C  C282  1  0.71640000  0.99520000  0.26654000  1.0
  C  C283  1  0.57620000  0.98040000  0.30993000  1.0
  C  C284  1  0.46020000  0.95560000  0.32565000  1.0
  C  C285  1  0.45250000  0.97460000  0.35599000  1.0
  C  C286  1  0.26350000  0.91060000  0.36160000  1.0
  C  C287  1  0.26000000  0.88830000  0.33130000  1.0
  C  C288  1  0.36150000  0.91300000  0.31182000  1.0
  C  C289  1  0.34740000  0.92090000  0.19357000  1.0
  C  C290  1  0.25180000  0.91190000  0.14362000  1.0
  C  C291  1  0.24830000  0.89280000  0.17424000  1.0
  C  C292  1  0.14820000  0.83890000  0.31978000  1.0
  C  C293  1  0.05390000  0.81600000  0.34475000  1.0
  C  C294  1  0.07000000  0.88680000  0.29619000  1.0
  C  C295  1  0.19920000  0.76770000  0.30497000  1.0
  C  C296  1  0.13740000  0.84530000  0.18680000  1.0
  C  C297  1  0.18860000  0.77590000  0.20340000  1.0
  C  C298  1  0.06120000  0.89470000  0.20898000  1.0
  C  C299  1  0.04700000  0.81710000  0.16227000  1.0
  C  C300  1  0.65920000  0.38910000  0.55179000  1.0
  C  C301  1  0.58710000  0.31600000  0.55102000  1.0
  C  C302  1  0.51040000  0.29900000  0.52640000  1.0
  C  C303  1  0.43470000  0.23590000  0.52634000  1.0
  C  C304  1  0.43490000  0.18810000  0.55066000  1.0
  C  C305  1  0.51430000  0.20340000  0.57509000  1.0
  C  C306  1  0.59000000  0.26680000  0.57551000  1.0
  C  C307  1  0.34480000  0.12140000  0.55087000  1.0
  C  C308  1  0.03280000  0.51860000  0.53502000  1.0
  C  C309  1  0.14790000  0.51080000  0.51509000  1.0
  C  C310  1  0.24790000  0.56290000  0.51633000  1.0
  C  C311  1  0.35840000  0.55240000  0.49929000  1.0
  C  C312  1  0.37070000  0.49000000  0.48062000  1.0
  C  C313  1  0.27040000  0.43760000  0.47958000  1.0
  C  C314  1  0.16150000  0.44890000  0.49644000  1.0
  C  C315  1  0.48550000  0.48250000  0.46055000  1.0
  C  C316  1  0.86490000  0.60840000  0.44516000  1.0
  C  C317  1  0.93670000  0.68080000  0.44762000  1.0
  C  C318  1  0.01150000  0.69470000  0.47316000  1.0
  C  C319  1  0.08360000  0.75930000  0.47568000  1.0
  C  C320  1  0.08160000  0.81170000  0.45212000  1.0
  C  C321  1  0.00430000  0.79890000  0.42723000  1.0
  C  C322  1  0.93210000  0.73360000  0.42507000  1.0
  C  C323  1  0.16880000  0.87780000  0.45384000  1.0
  C  C324  1  0.93660000  0.51880000  0.85155000  1.0
  C  C325  1  0.94460000  0.53400000  0.82039000  1.0
  C  C326  1  0.04800000  0.49910000  0.80459000  1.0
  C  C327  1  0.17340000  0.46070000  0.76090000  1.0
  C  C328  1  0.28990000  0.44190000  0.78067000  1.0
  C  C329  1  0.39010000  0.39780000  0.76176000  1.0
  C  C330  1  0.42880000  0.44110000  0.73363000  1.0
  C  C331  1  0.31060000  0.46010000  0.71394000  1.0
  C  C332  1  0.21640000  0.50480000  0.73346000  1.0
  C  C333  1  0.07620000  0.51960000  0.69007000  1.0
  C  C334  1  0.96020000  0.54440000  0.67435000  1.0
  C  C335  1  0.95250000  0.52540000  0.64401000  1.0
  C  C336  1  0.76350000  0.58940000  0.63840000  1.0
  C  C337  1  0.76000000  0.61170000  0.66870000  1.0
  C  C338  1  0.86150000  0.58700000  0.68818000  1.0
  C  C339  1  0.84740000  0.57910000  0.80643000  1.0
  C  C340  1  0.75180000  0.58810000  0.85638000  1.0
  C  C341  1  0.74830000  0.60720000  0.82576000  1.0
  C  C342  1  0.64820000  0.66110000  0.68022000  1.0
  C  C343  1  0.55390000  0.68400000  0.65525000  1.0
  C  C344  1  0.57000000  0.61320000  0.70381000  1.0
  C  C345  1  0.69920000  0.73230000  0.69503000  1.0
  C  C346  1  0.63740000  0.65470000  0.81320000  1.0
  C  C347  1  0.68860000  0.72410000  0.79660000  1.0
  C  C348  1  0.56120000  0.60530000  0.79102000  1.0
  C  C349  1  0.54700000  0.68290000  0.83773000  1.0
  C  C350  1  0.84080000  0.61090000  0.05179000  1.0
  C  C351  1  0.91290000  0.68400000  0.05102000  1.0
  C  C352  1  0.98960000  0.70100000  0.02640000  1.0
  C  C353  1  0.06530000  0.76410000  0.02634000  1.0
  C  C354  1  0.06510000  0.81190000  0.05066000  1.0
  C  C355  1  0.98570000  0.79660000  0.07509000  1.0
  C  C356  1  0.91000000  0.73320000  0.07551000  1.0
  C  C357  1  0.15520000  0.87860000  0.05087000  1.0
  C  C358  1  0.46720000  0.48140000  0.03502000  1.0
  C  C359  1  0.35210000  0.48920000  0.01509000  1.0
  C  C360  1  0.25210000  0.43710000  0.01633000  1.0
  C  C361  1  0.14160000  0.44760000  0.99929000  1.0
  C  C362  1  0.12930000  0.51000000  0.98062000  1.0
  C  C363  1  0.22960000  0.56240000  0.97958000  1.0
  C  C364  1  0.33850000  0.55110000  0.99644000  1.0
  C  C365  1  0.01450000  0.51750000  0.96055000  1.0
  C  C366  1  0.63510000  0.39160000  0.94516000  1.0
  C  C367  1  0.56330000  0.31920000  0.94762000  1.0
  C  C368  1  0.48850000  0.30530000  0.97316000  1.0
  C  C369  1  0.41640000  0.24070000  0.97568000  1.0
  C  C370  1  0.41840000  0.18830000  0.95212000  1.0
  C  C371  1  0.49570000  0.20110000  0.92723000  1.0
  C  C372  1  0.56790000  0.26640000  0.92507000  1.0
  C  C373  1  0.33120000  0.12220000  0.95384000  1.0
  C  C374  1  0.56340000  0.48120000  0.35155000  1.0
  C  C375  1  0.55540000  0.46600000  0.32039000  1.0
  C  C376  1  0.45200000  0.50090000  0.30459000  1.0
  C  C377  1  0.32660000  0.53930000  0.26090000  1.0
  C  C378  1  0.21010000  0.55810000  0.28067000  1.0
  C  C379  1  0.10990000  0.60220000  0.26176000  1.0
  C  C380  1  0.07120000  0.55890000  0.23363000  1.0
  C  C381  1  0.18940000  0.53990000  0.21394000  1.0
  C  C382  1  0.28360000  0.49520000  0.23346000  1.0
  C  C383  1  0.42380000  0.48040000  0.19007000  1.0
  C  C384  1  0.53980000  0.45560000  0.17435000  1.0
  C  C385  1  0.54750000  0.47460000  0.14401000  1.0
  C  C386  1  0.73650000  0.41060000  0.13840000  1.0
  C  C387  1  0.74000000  0.38830000  0.16870000  1.0
  C  C388  1  0.63850000  0.41300000  0.18818000  1.0
  C  C389  1  0.65260000  0.42090000  0.30643000  1.0
  C  C390  1  0.74820000  0.41190000  0.35638000  1.0
  C  C391  1  0.75170000  0.39280000  0.32576000  1.0
  C  C392  1  0.85180000  0.33890000  0.18022000  1.0
  C  C393  1  0.94610000  0.31600000  0.15525000  1.0
  C  C394  1  0.93000000  0.38680000  0.20381000  1.0
  C  C395  1  0.80080000  0.26770000  0.19503000  1.0
  C  C396  1  0.86260000  0.34530000  0.31320000  1.0
  C  C397  1  0.81140000  0.27590000  0.29660000  1.0
  C  C398  1  0.93880000  0.39470000  0.29102000  1.0
  C  C399  1  0.95300000  0.31710000  0.33773000  1.0
  N  N400  1  0.14440000  0.04560000  0.87420000  1.0
  N  N401  1  0.15760000  0.04300000  0.63095000  1.0
  N  N402  1  0.92930000  0.00570000  0.72388000  1.0
  N  N403  1  0.90390000  0.03000000  0.78167000  1.0
  N  N404  1  0.35560000  0.95440000  0.37420000  1.0
  N  N405  1  0.34240000  0.95700000  0.13095000  1.0
  N  N406  1  0.57070000  0.99430000  0.22388000  1.0
  N  N407  1  0.59610000  0.97000000  0.28167000  1.0
  N  N408  1  0.85560000  0.54560000  0.62580000  1.0
  N  N409  1  0.84240000  0.54300000  0.86905000  1.0
  N  N410  1  0.07070000  0.50570000  0.77612000  1.0
  N  N411  1  0.09610000  0.53000000  0.71833000  1.0
  N  N412  1  0.64440000  0.45440000  0.12580000  1.0
  N  N413  1  0.65760000  0.45700000  0.36905000  1.0
  N  N414  1  0.42930000  0.49430000  0.27612000  1.0
  N  N415  1  0.40390000  0.47000000  0.21833000  1.0
  O  O416  1  0.27120000  0.90010000  0.92501000  1.0
  O  O417  1  0.35860000  0.93290000  0.96932000  1.0
  O  O418  1  0.71300000  0.60670000  0.97353000  1.0
  O  O419  1  0.67100000  0.58820000  0.92444000  1.0
  O  O420  1  0.96430000  0.06190000  0.94287000  1.0
  O  O421  1  0.06550000  0.97700000  0.97030000  1.0
  O  O422  1  0.52040000  0.94110000  0.06201000  1.0
  O  O423  1  0.41550000  0.02230000  0.03389000  1.0
  O  O424  1  0.20350000  0.09840000  0.07861000  1.0
  O  O425  1  0.11840000  0.06130000  0.03437000  1.0
  O  O426  1  0.81440000  0.41420000  0.07006000  1.0
  O  O427  1  0.78020000  0.39260000  0.02111000  1.0
  O  O428  1  0.14040000  0.10360000  0.78359000  1.0
  O  O429  1  0.15250000  0.09460000  0.72202000  1.0
  O  O430  1  0.22880000  0.09990000  0.42501000  1.0
  O  O431  1  0.14140000  0.06710000  0.46932000  1.0
  O  O432  1  0.78700000  0.39330000  0.47353000  1.0
  O  O433  1  0.82900000  0.41180000  0.42444000  1.0
  O  O434  1  0.53570000  0.93810000  0.44287000  1.0
  O  O435  1  0.43450000  0.02300000  0.47030000  1.0
  O  O436  1  0.97960000  0.05890000  0.56201000  1.0
  O  O437  1  0.08450000  0.97770000  0.53389000  1.0
  O  O438  1  0.29650000  0.90160000  0.57861000  1.0
  O  O439  1  0.38160000  0.93870000  0.53437000  1.0
  O  O440  1  0.68560000  0.58580000  0.57006000  1.0
  O  O441  1  0.71980000  0.60740000  0.52111000  1.0
  O  O442  1  0.35960000  0.89640000  0.28359000  1.0
  O  O443  1  0.34750000  0.90540000  0.22202000  1.0
  O  O444  1  0.72880000  0.40010000  0.57499000  1.0
  O  O445  1  0.64140000  0.43290000  0.53068000  1.0
  O  O446  1  0.28700000  0.10670000  0.52647000  1.0
  O  O447  1  0.32900000  0.08820000  0.57556000  1.0
  O  O448  1  0.03570000  0.56190000  0.55713000  1.0
  O  O449  1  0.93450000  0.47700000  0.52970000  1.0
  O  O450  1  0.47960000  0.44110000  0.43799000  1.0
  O  O451  1  0.58450000  0.52230000  0.46611000  1.0
  O  O452  1  0.79650000  0.59840000  0.42139000  1.0
  O  O453  1  0.88160000  0.56130000  0.46563000  1.0
  O  O454  1  0.18560000  0.91420000  0.42994000  1.0
  O  O455  1  0.21980000  0.89260000  0.47889000  1.0
  O  O456  1  0.85960000  0.60360000  0.71641000  1.0
  O  O457  1  0.84750000  0.59460000  0.77798000  1.0
  O  O458  1  0.77120000  0.59990000  0.07499000  1.0
  O  O459  1  0.85860000  0.56710000  0.03068000  1.0
  O  O460  1  0.21300000  0.89330000  0.02647000  1.0
  O  O461  1  0.17100000  0.91180000  0.07556000  1.0
  O  O462  1  0.46430000  0.43810000  0.05713000  1.0
  O  O463  1  0.56550000  0.52300000  0.02970000  1.0
  O  O464  1  0.02040000  0.55890000  0.93799000  1.0
  O  O465  1  0.91550000  0.47770000  0.96611000  1.0
  O  O466  1  0.70350000  0.40160000  0.92139000  1.0
  O  O467  1  0.61840000  0.43870000  0.96563000  1.0
  O  O468  1  0.31440000  0.08580000  0.92994000  1.0
  O  O469  1  0.28020000  0.10740000  0.97889000  1.0
  O  O470  1  0.64040000  0.39640000  0.21641000  1.0
  O  O471  1  0.65250000  0.40540000  0.27798000  1.0
