# generated using pymatgen
data_Zr3H26C48(NO3)4
_symmetry_space_group_name_H-M   'P 1'
_cell_length_a   20.93230000
_cell_length_b   20.93220000
_cell_length_c   17.12200000
_cell_angle_alpha   90.00000000
_cell_angle_beta   90.00000000
_cell_angle_gamma   60.00000000
_symmetry_Int_Tables_number   1
_chemical_formula_structural   Zr3H26C48(NO3)4
_chemical_formula_sum   'Zr6 H52 C96 N8 O24'
_cell_volume   6497.06109130
_cell_formula_units_Z   2
loop_
 _symmetry_equiv_pos_site_id
 _symmetry_equiv_pos_as_xyz
  1  'x, y, z'
loop_
 _atom_site_type_symbol
 _atom_site_label
 _atom_site_symmetry_multiplicity
 _atom_site_fract_x
 _atom_site_fract_y
 _atom_site_fract_z
 _atom_site_occupancy
  Zr  Zr0  1  0.06865000  0.06444000  0.00648000  1.0
  Zr  Zr1  1  0.07546000  0.92856000  0.91369000  1.0
  Zr  Zr2  1  0.92723000  0.07564000  0.89584000  1.0
  Zr  Zr3  1  0.93728000  0.06387000  0.09809000  1.0
  Zr  Zr4  1  0.93843000  0.93422000  0.00648000  1.0
  Zr  Zr5  1  0.07463000  0.92824000  0.11499000  1.0
  H  H6  1  0.94015000  0.76168000  0.42435000  1.0
  H  H7  1  0.07604000  0.52821000  0.78559000  1.0
  H  H8  1  0.07977000  0.39998000  0.78497000  1.0
  H  H9  1  0.96608000  0.27857000  0.57914000  1.0
  H  H10  1  0.96356000  0.28077000  0.42535000  1.0
  H  H11  1  0.08327000  0.39743000  0.22322000  1.0
  H  H12  1  0.08966000  0.52055000  0.22591000  1.0
  H  H13  1  0.93228000  0.76462000  0.57935000  1.0
  H  H14  1  0.12430000  0.27028000  0.73080000  1.0
  H  H15  1  0.11860000  0.18566000  0.82639000  1.0
  H  H16  1  0.88282000  0.29185000  0.79366000  1.0
  H  H17  1  0.88856000  0.37796000  0.70067000  1.0
  H  H18  1  0.11760000  0.27079000  0.27494000  1.0
  H  H19  1  0.10793000  0.19039000  0.17746000  1.0
  H  H20  1  0.87129000  0.30617000  0.20755000  1.0
  H  H21  1  0.88148000  0.38785000  0.30349000  1.0
  H  H22  1  0.10595000  0.67348000  0.36217000  1.0
  H  H23  1  0.11150000  0.75688000  0.26527000  1.0
  H  H24  1  0.94394000  0.74508000  0.12893000  1.0
  H  H25  1  0.93953000  0.66121000  0.22556000  1.0
  H  H26  1  0.09184000  0.67903000  0.64782000  1.0
  H  H27  1  0.09980000  0.75976000  0.74518000  1.0
  H  H28  1  0.93238000  0.74912000  0.88319000  1.0
  H  H29  1  0.92521000  0.66750000  0.78485000  1.0
  H  H30  1  0.97453000  0.51639000  0.42905000  1.0
  H  H31  1  0.97121000  0.51595000  0.57761000  1.0
  H  H32  1  0.24118000  0.06276000  0.42435000  1.0
  H  H33  1  0.47465000  0.92685000  0.78558000  1.0
  H  H34  1  0.60288000  0.92311000  0.78496000  1.0
  H  H35  1  0.72430000  0.03679000  0.57914000  1.0
  H  H36  1  0.72210000  0.03932000  0.42535000  1.0
  H  H37  1  0.60544000  0.91961000  0.22323000  1.0
  H  H38  1  0.48232000  0.91323000  0.22591000  1.0
  H  H39  1  0.23824000  0.07062000  0.57934000  1.0
  H  H40  1  0.62491000  0.11431000  0.70067000  1.0
  H  H41  1  0.71102000  0.12005000  0.79366000  1.0
  H  H42  1  0.81720000  0.88427000  0.82639000  1.0
  H  H43  1  0.73259000  0.87858000  0.73080000  1.0
  H  H44  1  0.73208000  0.88528000  0.27494000  1.0
  H  H45  1  0.81248000  0.89495000  0.17747000  1.0
  H  H46  1  0.69670000  0.13158000  0.20755000  1.0
  H  H47  1  0.61502000  0.12140000  0.30349000  1.0
  H  H48  1  0.32938000  0.89694000  0.36218000  1.0
  H  H49  1  0.24599000  0.89138000  0.26528000  1.0
  H  H50  1  0.25779000  0.05893000  0.12893000  1.0
  H  H51  1  0.34166000  0.06335000  0.22555000  1.0
  H  H52  1  0.32382000  0.91106000  0.64781000  1.0
  H  H53  1  0.24309000  0.90309000  0.74516000  1.0
  H  H54  1  0.25375000  0.07049000  0.88320000  1.0
  H  H55  1  0.33537000  0.07767000  0.78485000  1.0
  H  H56  1  0.48648000  0.02836000  0.42905000  1.0
  H  H57  1  0.48691000  0.03167000  0.57761000  1.0
  C  C58  1  0.05522000  0.50784000  0.73984000  1.0
  C  C59  1  0.05740000  0.44105000  0.73925000  1.0
  C  C60  1  0.02440000  0.43817000  0.67022000  1.0
  C  C61  1  0.02041000  0.54358000  0.67155000  1.0
  C  C62  1  0.01023000  0.37795000  0.64780000  1.0
  C  C63  1  0.99813000  0.36419000  0.56553000  1.0
  C  C64  1  0.97752000  0.31370000  0.54242000  1.0
  C  C65  1  0.97619000  0.31482000  0.46246000  1.0
  C  C66  1  0.99622000  0.36580000  0.43974000  1.0
  C  C67  1  0.00637000  0.38123000  0.35752000  1.0
  C  C68  1  0.02598000  0.43804000  0.33668000  1.0
  C  C69  1  0.06224000  0.43835000  0.26914000  1.0
  C  C70  1  0.06552000  0.50239000  0.27037000  1.0
  C  C71  1  0.03049000  0.53921000  0.33815000  1.0
  C  C72  1  0.01717000  0.61323000  0.36068000  1.0
  C  C73  1  0.99777000  0.64074000  0.44168000  1.0
  C  C74  1  0.96109000  0.71438000  0.46277000  1.0
  C  C75  1  0.95690000  0.71591000  0.54280000  1.0
  C  C76  1  0.99128000  0.64314000  0.56690000  1.0
  C  C77  1  0.00372000  0.61875000  0.64933000  1.0
  C  C78  1  0.00673000  0.33044000  0.70943000  1.0
  C  C79  1  0.00014000  0.33580000  0.29517000  1.0
  C  C80  1  0.02237000  0.66135000  0.30078000  1.0
  C  C81  1  0.00787000  0.66757000  0.70917000  1.0
  C  C82  1  0.07131000  0.27619000  0.74571000  1.0
  C  C83  1  0.06800000  0.22805000  0.80003000  1.0
  C  C84  1  0.00028000  0.23244000  0.81706000  1.0
  C  C85  1  0.93568000  0.28729000  0.78121000  1.0
  C  C86  1  0.93881000  0.33647000  0.72845000  1.0
  C  C87  1  0.06361000  0.27976000  0.25915000  1.0
  C  C88  1  0.05792000  0.23390000  0.20370000  1.0
  C  C89  1  0.98874000  0.24233000  0.18470000  1.0
  C  C90  1  0.92524000  0.29849000  0.22104000  1.0
  C  C91  1  0.93090000  0.34523000  0.27546000  1.0
  C  C92  1  0.07094000  0.68857000  0.31099000  1.0
  C  C93  1  0.07432000  0.73578000  0.25545000  1.0
  C  C94  1  0.02833000  0.75734000  0.18940000  1.0
  C  C95  1  0.98013000  0.72945000  0.17916000  1.0
  C  C96  1  0.97755000  0.68149000  0.23415000  1.0
  C  C97  1  0.05689000  0.69412000  0.69907000  1.0
  C  C98  1  0.06161000  0.73993000  0.75510000  1.0
  C  C99  1  0.01695000  0.76062000  0.82226000  1.0
  C  C100  1  0.96761000  0.73408000  0.83222000  1.0
  C  C101  1  0.96347000  0.68749000  0.77626000  1.0
  C  C102  1  0.49502000  0.94766000  0.73984000  1.0
  C  C103  1  0.56181000  0.94548000  0.73924000  1.0
  C  C104  1  0.56470000  0.97848000  0.67022000  1.0
  C  C105  1  0.45928000  0.98247000  0.67155000  1.0
  C  C106  1  0.62491000  0.99264000  0.64780000  1.0
  C  C107  1  0.63867000  0.00475000  0.56553000  1.0
  C  C108  1  0.68917000  0.02535000  0.54242000  1.0
  C  C109  1  0.68804000  0.02669000  0.46247000  1.0
  C  C110  1  0.63707000  0.00666000  0.43974000  1.0
  C  C111  1  0.62164000  0.99651000  0.35752000  1.0
  C  C112  1  0.56483000  0.97691000  0.33668000  1.0
  C  C113  1  0.56451000  0.94064000  0.26914000  1.0
  C  C114  1  0.50047000  0.93737000  0.27037000  1.0
  C  C115  1  0.46365000  0.97239000  0.33815000  1.0
  C  C116  1  0.38963000  0.98572000  0.36068000  1.0
  C  C117  1  0.36212000  0.00512000  0.44168000  1.0
  C  C118  1  0.28849000  0.04180000  0.46277000  1.0
  C  C119  1  0.28696000  0.04600000  0.54280000  1.0
  C  C120  1  0.35973000  0.01161000  0.56690000  1.0
  C  C121  1  0.38411000  0.99917000  0.64933000  1.0
  C  C122  1  0.67243000  0.99615000  0.70943000  1.0
  C  C123  1  0.66707000  0.00274000  0.29517000  1.0
  C  C124  1  0.34151000  0.98051000  0.30078000  1.0
  C  C125  1  0.33529000  0.99502000  0.70916000  1.0
  C  C126  1  0.66640000  0.06406000  0.72846000  1.0
  C  C127  1  0.71558000  0.06719000  0.78121000  1.0
  C  C128  1  0.77043000  0.00259000  0.81706000  1.0
  C  C129  1  0.77482000  0.93487000  0.80003000  1.0
  C  C130  1  0.72667000  0.93156000  0.74571000  1.0
  C  C131  1  0.72311000  0.93927000  0.25915000  1.0
  C  C132  1  0.76897000  0.94495000  0.20370000  1.0
  C  C133  1  0.76054000  0.01413000  0.18470000  1.0
  C  C134  1  0.70438000  0.07764000  0.22104000  1.0
  C  C135  1  0.65764000  0.07198000  0.27546000  1.0
  C  C136  1  0.31429000  0.93194000  0.31099000  1.0
  C  C137  1  0.26708000  0.92856000  0.25545000  1.0
  C  C138  1  0.24553000  0.97455000  0.18940000  1.0
  C  C139  1  0.27342000  0.02275000  0.17916000  1.0
  C  C140  1  0.32138000  0.02533000  0.23414000  1.0
  C  C141  1  0.30874000  0.94600000  0.69906000  1.0
  C  C142  1  0.26293000  0.94128000  0.75509000  1.0
  C  C143  1  0.24225000  0.98593000  0.82225000  1.0
  C  C144  1  0.26879000  0.03527000  0.83222000  1.0
  C  C145  1  0.31538000  0.03941000  0.77626000  1.0
  C  C146  1  0.98387000  0.19068000  0.12957000  1.0
  C  C147  1  0.99737000  0.17762000  0.86849000  1.0
  C  C148  1  0.02116000  0.81111000  0.87985000  1.0
  C  C149  1  0.02726000  0.81196000  0.13390000  1.0
  C  C150  1  0.81219000  0.01900000  0.12957000  1.0
  C  C151  1  0.19091000  0.97562000  0.13390000  1.0
  C  C152  1  0.82525000  0.00550000  0.86849000  1.0
  C  C153  1  0.19175000  0.98172000  0.87984000  1.0
  N  N154  1  0.00164000  0.50102000  0.62931000  1.0
  N  N155  1  0.01050000  0.39559000  0.50271000  1.0
  N  N156  1  0.00645000  0.49985000  0.37838000  1.0
  N  N157  1  0.01656000  0.59685000  0.50522000  1.0
  N  N158  1  0.50184000  0.00125000  0.62931000  1.0
  N  N159  1  0.60728000  0.99238000  0.50271000  1.0
  N  N160  1  0.50302000  0.99644000  0.37838000  1.0
  N  N161  1  0.40602000  0.98633000  0.50522000  1.0
  O  O162  1  0.03989000  0.02267000  0.91226000  1.0
  O  O163  1  0.11237000  0.95175000  0.01429000  1.0
  O  O164  1  0.16135000  0.03484000  0.93599000  1.0
  O  O165  1  0.18032000  0.92328000  0.86211000  1.0
  O  O166  1  0.95554000  0.10820000  0.99745000  1.0
  O  O167  1  0.93164000  0.17324000  0.85136000  1.0
  O  O168  1  0.04636000  0.15023000  0.92867000  1.0
  O  O169  1  0.02304000  0.04030000  0.10153000  1.0
  O  O170  1  0.03940000  0.15681000  0.07653000  1.0
  O  O171  1  0.92396000  0.18128000  0.13455000  1.0
  O  O172  1  0.17819000  0.91781000  0.14531000  1.0
  O  O173  1  0.15656000  0.03475000  0.08478000  1.0
  O  O174  1  0.98020000  0.96298000  0.91226000  1.0
  O  O175  1  0.05112000  0.89050000  0.01429000  1.0
  O  O176  1  0.07951000  0.82245000  0.86213000  1.0
  O  O177  1  0.96803000  0.84152000  0.93599000  1.0
  O  O178  1  0.89468000  0.04733000  0.99745000  1.0
  O  O179  1  0.85264000  0.95651000  0.92868000  1.0
  O  O180  1  0.83049000  0.07209000  0.85136000  1.0
  O  O181  1  0.96258000  0.97983000  0.10153000  1.0
  O  O182  1  0.82711000  0.08443000  0.13441000  1.0
  O  O183  1  0.84606000  0.96347000  0.07653000  1.0
  O  O184  1  0.96813000  0.84631000  0.08478000  1.0
  O  O185  1  0.08517000  0.82480000  0.14531000  1.0
