# generated using pymatgen
data_AgH5C3NO
_symmetry_space_group_name_H-M   'P 1'
_cell_length_a   5.74800000
_cell_length_b   17.79400000
_cell_length_c   18.33900000
_cell_angle_alpha   95.83000000
_cell_angle_beta   98.89000000
_cell_angle_gamma   95.49000000
_symmetry_Int_Tables_number   1
_chemical_formula_structural   AgH5C3NO
_chemical_formula_sum   'Ag8 H40 C24 N8 O8'
_cell_volume   1831.71956228
_cell_formula_units_Z   8
loop_
 _symmetry_equiv_pos_site_id
 _symmetry_equiv_pos_as_xyz
  1  'x, y, z'
loop_
 _atom_site_type_symbol
 _atom_site_label
 _atom_site_symmetry_multiplicity
 _atom_site_fract_x
 _atom_site_fract_y
 _atom_site_fract_z
 _atom_site_occupancy
  Ag  Ag0  1  0.10248000  0.55109000  0.37965000  1.0
  Ag  Ag1  1  0.36485000  0.42763000  0.50033000  1.0
  Ag  Ag2  1  0.61791000  0.03445000  0.19056000  1.0
  Ag  Ag3  1  0.26721000  0.94860000  0.00600000  1.0
  Ag  Ag4  1  0.89752000  0.44891000  0.62035000  1.0
  Ag  Ag5  1  0.63515000  0.57237000  0.49967000  1.0
  Ag  Ag6  1  0.38209000  0.96555000  0.80944000  1.0
  Ag  Ag7  1  0.73279000  0.05140000  0.99400000  1.0
  H  H8  1  0.70600000  0.39180000  0.28670000  1.0
  H  H9  1  0.63900000  0.46720000  0.25600000  1.0
  H  H10  1  0.40210000  0.36440000  0.18730000  1.0
  H  H11  1  0.24660000  0.41840000  0.22630000  1.0
  H  H12  1  0.56130000  0.26700000  0.28720000  1.0
  H  H13  1  0.38740000  0.22860000  0.21580000  1.0
  H  H14  1  0.41110000  0.15020000  0.31590000  1.0
  H  H15  1  0.29680000  0.21150000  0.36200000  1.0
  H  H16  1  0.82980000  0.80860000  0.03560000  1.0
  H  H17  1  0.99150000  0.83740000  0.11200000  1.0
  H  H18  1  0.68520000  0.73000000  0.10550000  1.0
  H  H19  1  0.51250000  0.79260000  0.11010000  1.0
  H  H20  1  0.43130000  0.74820000  0.23740000  1.0
  H  H21  1  0.60170000  0.68640000  0.22320000  1.0
  H  H22  1  0.85120000  0.73660000  0.33560000  1.0
  H  H23  1  0.66860000  0.79450000  0.35020000  1.0
  H  H24  1  0.09990000  0.30110000  0.24260000  1.0
  H  H25  1  0.24440000  0.33360000  0.31980000  1.0
  H  H26  1  0.71830000  0.84390000  0.22590000  1.0
  H  H27  1  0.90530000  0.78700000  0.22070000  1.0
  H  H28  1  0.29400000  0.60820000  0.71330000  1.0
  H  H29  1  0.36100000  0.53280000  0.74400000  1.0
  H  H30  1  0.59790000  0.63560000  0.81270000  1.0
  H  H31  1  0.75340000  0.58160000  0.77370000  1.0
  H  H32  1  0.43870000  0.73300000  0.71280000  1.0
  H  H33  1  0.61260000  0.77140000  0.78420000  1.0
  H  H34  1  0.58890000  0.84980000  0.68410000  1.0
  H  H35  1  0.70320000  0.78850000  0.63800000  1.0
  H  H36  1  0.17020000  0.19140000  0.96440000  1.0
  H  H37  1  0.00850000  0.16260000  0.88800000  1.0
  H  H38  1  0.31480000  0.27000000  0.89450000  1.0
  H  H39  1  0.48750000  0.20740000  0.88990000  1.0
  H  H40  1  0.56870000  0.25180000  0.76260000  1.0
  H  H41  1  0.39830000  0.31360000  0.77680000  1.0
  H  H42  1  0.14880000  0.26340000  0.66440000  1.0
  H  H43  1  0.33140000  0.20550000  0.64980000  1.0
  H  H44  1  0.90010000  0.69890000  0.75740000  1.0
  H  H45  1  0.75560000  0.66640000  0.68020000  1.0
  H  H46  1  0.28170000  0.15610000  0.77410000  1.0
  H  H47  1  0.09470000  0.21300000  0.77930000  1.0
  C  C48  1  0.55290000  0.45780000  0.35800000  1.0
  C  C49  1  0.58370000  0.42580000  0.28180000  1.0
  C  C50  1  0.36420000  0.38330000  0.23510000  1.0
  C  C51  1  0.39630000  0.25020000  0.26700000  1.0
  C  C52  1  0.30210000  0.18850000  0.31210000  1.0
  C  C53  1  0.06030000  0.15100000  0.27770000  1.0
  C  C54  1  0.75640000  0.91190000  0.08040000  1.0
  C  C55  1  0.83030000  0.83290000  0.08550000  1.0
  C  C56  1  0.67560000  0.78260000  0.12360000  1.0
  C  C57  1  0.59540000  0.73790000  0.24540000  1.0
  C  C58  1  0.68480000  0.74420000  0.32710000  1.0
  C  C59  1  0.55110000  0.68790000  0.35900000  1.0
  C  C60  1  0.44710000  0.54220000  0.64200000  1.0
  C  C61  1  0.41630000  0.57420000  0.71820000  1.0
  C  C62  1  0.63580000  0.61670000  0.76490000  1.0
  C  C63  1  0.60370000  0.74980000  0.73300000  1.0
  C  C64  1  0.69790000  0.81150000  0.68790000  1.0
  C  C65  1  0.93970000  0.84900000  0.72230000  1.0
  C  C66  1  0.24360000  0.08810000  0.91960000  1.0
  C  C67  1  0.16970000  0.16710000  0.91450000  1.0
  C  C68  1  0.32440000  0.21740000  0.87640000  1.0
  C  C69  1  0.40460000  0.26210000  0.75460000  1.0
  C  C70  1  0.31520000  0.25580000  0.67290000  1.0
  C  C71  1  0.44890000  0.31210000  0.64100000  1.0
  N  N72  1  0.25710000  0.31710000  0.26930000  1.0
  N  N73  1  0.88440000  0.11910000  0.25150000  1.0
  N  N74  1  0.74040000  0.79300000  0.20770000  1.0
  N  N75  1  0.44520000  0.64230000  0.38400000  1.0
  N  N76  1  0.74290000  0.68290000  0.73070000  1.0
  N  N77  1  0.11560000  0.88090000  0.74850000  1.0
  N  N78  1  0.25960000  0.20700000  0.79230000  1.0
  N  N79  1  0.55480000  0.35770000  0.61600000  1.0
  O  O80  1  0.34910000  0.44620000  0.37790000  1.0
  O  O81  1  0.73020000  0.49420000  0.40050000  1.0
  O  O82  1  0.56300000  0.92620000  0.09900000  1.0
  O  O83  1  0.89010000  0.95790000  0.05390000  1.0
  O  O84  1  0.65090000  0.55380000  0.62210000  1.0
  O  O85  1  0.26980000  0.50580000  0.59950000  1.0
  O  O86  1  0.43700000  0.07380000  0.90100000  1.0
  O  O87  1  0.10990000  0.04210000  0.94610000  1.0
