# generated using pymatgen
data_FeH8Au2(C8N5)2
_symmetry_space_group_name_H-M   'P 1'
_cell_length_a   12.06600000
_cell_length_b   16.12100000
_cell_length_c   15.09900000
_cell_angle_alpha   90.00000000
_cell_angle_beta   90.00000000
_cell_angle_gamma   90.00000000
_symmetry_Int_Tables_number   1
_chemical_formula_structural   FeH8Au2(C8N5)2
_chemical_formula_sum   'Fe4 H32 Au8 C64 N40'
_cell_volume   2936.99687261
_cell_formula_units_Z   4
loop_
 _symmetry_equiv_pos_site_id
 _symmetry_equiv_pos_as_xyz
  1  'x, y, z'
loop_
 _atom_site_type_symbol
 _atom_site_label
 _atom_site_symmetry_multiplicity
 _atom_site_fract_x
 _atom_site_fract_y
 _atom_site_fract_z
 _atom_site_occupancy
  Fe  Fe0  1  0.50000000  0.25000000  0.38450000  1.0
  Fe  Fe1  1  0.00000000  0.75000000  0.38450000  1.0
  Fe  Fe2  1  0.50000000  0.75000000  0.61550000  1.0
  Fe  Fe3  1  0.00000000  0.25000000  0.61550000  1.0
  H  H4  1  0.66290000  0.25000000  0.23800000  1.0
  H  H5  1  0.66890000  0.25000000  0.08520000  1.0
  H  H6  1  0.66550000  0.25000000  0.68600000  1.0
  H  H7  1  0.66330000  0.25000000  0.53170000  1.0
  H  H8  1  0.16290000  0.75000000  0.23800000  1.0
  H  H9  1  0.16890000  0.75000000  0.08520000  1.0
  H  H10  1  0.16550000  0.75000000  0.68600000  1.0
  H  H11  1  0.16330000  0.75000000  0.53170000  1.0
  H  H12  1  0.33710000  0.25000000  0.23800000  1.0
  H  H13  1  0.33110000  0.25000000  0.08520000  1.0
  H  H14  1  0.33450000  0.25000000  0.68600000  1.0
  H  H15  1  0.33670000  0.25000000  0.53170000  1.0
  H  H16  1  0.83710000  0.75000000  0.23800000  1.0
  H  H17  1  0.83110000  0.75000000  0.08520000  1.0
  H  H18  1  0.83450000  0.75000000  0.68600000  1.0
  H  H19  1  0.83670000  0.75000000  0.53170000  1.0
  H  H20  1  0.33710000  0.75000000  0.76200000  1.0
  H  H21  1  0.33110000  0.75000000  0.91480000  1.0
  H  H22  1  0.33450000  0.75000000  0.31400000  1.0
  H  H23  1  0.33670000  0.75000000  0.46830000  1.0
  H  H24  1  0.83710000  0.25000000  0.76200000  1.0
  H  H25  1  0.83110000  0.25000000  0.91480000  1.0
  H  H26  1  0.83450000  0.25000000  0.31400000  1.0
  H  H27  1  0.83670000  0.25000000  0.46830000  1.0
  H  H28  1  0.66290000  0.75000000  0.76200000  1.0
  H  H29  1  0.66890000  0.75000000  0.91480000  1.0
  H  H30  1  0.66550000  0.75000000  0.31400000  1.0
  H  H31  1  0.66330000  0.75000000  0.46830000  1.0
  H  H32  1  0.16290000  0.25000000  0.76200000  1.0
  H  H33  1  0.16890000  0.25000000  0.91480000  1.0
  H  H34  1  0.16550000  0.25000000  0.31400000  1.0
  H  H35  1  0.16330000  0.25000000  0.46830000  1.0
  Au  Au36  1  0.75000000  0.00000000  0.39271000  1.0
  Au  Au37  1  0.25000000  0.50000000  0.39271000  1.0
  Au  Au38  1  0.75000000  0.50000000  0.39271000  1.0
  Au  Au39  1  0.25000000  0.00000000  0.39271000  1.0
  Au  Au40  1  0.25000000  0.50000000  0.60729000  1.0
  Au  Au41  1  0.75000000  0.00000000  0.60729000  1.0
  Au  Au42  1  0.25000000  0.00000000  0.60729000  1.0
  Au  Au43  1  0.75000000  0.50000000  0.60729000  1.0
  C  C44  1  0.66400000  0.10420000  0.38910000  1.0
  C  C45  1  0.16400000  0.60420000  0.38910000  1.0
  C  C46  1  0.33600000  0.39580000  0.38910000  1.0
  C  C47  1  0.83600000  0.89580000  0.38910000  1.0
  C  C48  1  0.66400000  0.39580000  0.38910000  1.0
  C  C49  1  0.16400000  0.89580000  0.38910000  1.0
  C  C50  1  0.33600000  0.10420000  0.38910000  1.0
  C  C51  1  0.83600000  0.60420000  0.38910000  1.0
  C  C52  1  0.50000000  0.25000000  0.06700000  1.0
  C  C53  1  0.50000000  0.25000000  0.96890000  1.0
  C  C54  1  0.50000000  0.25000000  0.79980000  1.0
  C  C55  1  0.50000000  0.25000000  0.70060000  1.0
  C  C56  1  0.00000000  0.75000000  0.06700000  1.0
  C  C57  1  0.00000000  0.75000000  0.96890000  1.0
  C  C58  1  0.00000000  0.75000000  0.79980000  1.0
  C  C59  1  0.00000000  0.75000000  0.70060000  1.0
  C  C60  1  0.59500000  0.25000000  0.20610000  1.0
  C  C61  1  0.59950000  0.25000000  0.11500000  1.0
  C  C62  1  0.59690000  0.25000000  0.65520000  1.0
  C  C63  1  0.59490000  0.25000000  0.56290000  1.0
  C  C64  1  0.09500000  0.75000000  0.20610000  1.0
  C  C65  1  0.09950000  0.75000000  0.11500000  1.0
  C  C66  1  0.09690000  0.75000000  0.65520000  1.0
  C  C67  1  0.09490000  0.75000000  0.56290000  1.0
  C  C68  1  0.40500000  0.25000000  0.20610000  1.0
  C  C69  1  0.40050000  0.25000000  0.11500000  1.0
  C  C70  1  0.40310000  0.25000000  0.65520000  1.0
  C  C71  1  0.40510000  0.25000000  0.56290000  1.0
  C  C72  1  0.90500000  0.75000000  0.20610000  1.0
  C  C73  1  0.90050000  0.75000000  0.11500000  1.0
  C  C74  1  0.90310000  0.75000000  0.65520000  1.0
  C  C75  1  0.90510000  0.75000000  0.56290000  1.0
  C  C76  1  0.33600000  0.60420000  0.61090000  1.0
  C  C77  1  0.83600000  0.10420000  0.61090000  1.0
  C  C78  1  0.66400000  0.89580000  0.61090000  1.0
  C  C79  1  0.16400000  0.39580000  0.61090000  1.0
  C  C80  1  0.33600000  0.89580000  0.61090000  1.0
  C  C81  1  0.83600000  0.39580000  0.61090000  1.0
  C  C82  1  0.66400000  0.60420000  0.61090000  1.0
  C  C83  1  0.16400000  0.10420000  0.61090000  1.0
  C  C84  1  0.50000000  0.75000000  0.93300000  1.0
  C  C85  1  0.50000000  0.75000000  0.03110000  1.0
  C  C86  1  0.50000000  0.75000000  0.20020000  1.0
  C  C87  1  0.50000000  0.75000000  0.29940000  1.0
  C  C88  1  0.00000000  0.25000000  0.93300000  1.0
  C  C89  1  0.00000000  0.25000000  0.03110000  1.0
  C  C90  1  0.00000000  0.25000000  0.20020000  1.0
  C  C91  1  0.00000000  0.25000000  0.29940000  1.0
  C  C92  1  0.40500000  0.75000000  0.79390000  1.0
  C  C93  1  0.40050000  0.75000000  0.88500000  1.0
  C  C94  1  0.40310000  0.75000000  0.34480000  1.0
  C  C95  1  0.40510000  0.75000000  0.43710000  1.0
  C  C96  1  0.90500000  0.25000000  0.79390000  1.0
  C  C97  1  0.90050000  0.25000000  0.88500000  1.0
  C  C98  1  0.90310000  0.25000000  0.34480000  1.0
  C  C99  1  0.90510000  0.25000000  0.43710000  1.0
  C  C100  1  0.59500000  0.75000000  0.79390000  1.0
  C  C101  1  0.59950000  0.75000000  0.88500000  1.0
  C  C102  1  0.59690000  0.75000000  0.34480000  1.0
  C  C103  1  0.59490000  0.75000000  0.43710000  1.0
  C  C104  1  0.09500000  0.25000000  0.79390000  1.0
  C  C105  1  0.09950000  0.25000000  0.88500000  1.0
  C  C106  1  0.09690000  0.25000000  0.34480000  1.0
  C  C107  1  0.09490000  0.25000000  0.43710000  1.0
  N  N108  1  0.61020000  0.16310000  0.38550000  1.0
  N  N109  1  0.11020000  0.66310000  0.38550000  1.0
  N  N110  1  0.38980000  0.33690000  0.38550000  1.0
  N  N111  1  0.88980000  0.83690000  0.38550000  1.0
  N  N112  1  0.61020000  0.33690000  0.38550000  1.0
  N  N113  1  0.11020000  0.83690000  0.38550000  1.0
  N  N114  1  0.38980000  0.16310000  0.38550000  1.0
  N  N115  1  0.88980000  0.66310000  0.38550000  1.0
  N  N116  1  0.50000000  0.25000000  0.25270000  1.0
  N  N117  1  0.50000000  0.25000000  0.51640000  1.0
  N  N118  1  0.00000000  0.75000000  0.25270000  1.0
  N  N119  1  0.00000000  0.75000000  0.51640000  1.0
  N  N120  1  0.59870000  0.25000000  0.92780000  1.0
  N  N121  1  0.59820000  0.25000000  0.83980000  1.0
  N  N122  1  0.09870000  0.75000000  0.92780000  1.0
  N  N123  1  0.09820000  0.75000000  0.83980000  1.0
  N  N124  1  0.40130000  0.25000000  0.92780000  1.0
  N  N125  1  0.40180000  0.25000000  0.83980000  1.0
  N  N126  1  0.90130000  0.75000000  0.92780000  1.0
  N  N127  1  0.90180000  0.75000000  0.83980000  1.0
  N  N128  1  0.38980000  0.66310000  0.61450000  1.0
  N  N129  1  0.88980000  0.16310000  0.61450000  1.0
  N  N130  1  0.61020000  0.83690000  0.61450000  1.0
  N  N131  1  0.11020000  0.33690000  0.61450000  1.0
  N  N132  1  0.38980000  0.83690000  0.61450000  1.0
  N  N133  1  0.88980000  0.33690000  0.61450000  1.0
  N  N134  1  0.61020000  0.66310000  0.61450000  1.0
  N  N135  1  0.11020000  0.16310000  0.61450000  1.0
  N  N136  1  0.50000000  0.75000000  0.74730000  1.0
  N  N137  1  0.50000000  0.75000000  0.48360000  1.0
  N  N138  1  0.00000000  0.25000000  0.74730000  1.0
  N  N139  1  0.00000000  0.25000000  0.48360000  1.0
  N  N140  1  0.40130000  0.75000000  0.07220000  1.0
  N  N141  1  0.40180000  0.75000000  0.16020000  1.0
  N  N142  1  0.90130000  0.25000000  0.07220000  1.0
  N  N143  1  0.90180000  0.25000000  0.16020000  1.0
  N  N144  1  0.59870000  0.75000000  0.07220000  1.0
  N  N145  1  0.59820000  0.75000000  0.16020000  1.0
  N  N146  1  0.09870000  0.25000000  0.07220000  1.0
  N  N147  1  0.09820000  0.25000000  0.16020000  1.0
