# generated using pymatgen
data_InH5C8O5
_symmetry_space_group_name_H-M   'P 1'
_cell_length_a   7.23300000
_cell_length_b   21.75820000
_cell_length_c   21.75820000
_cell_angle_alpha   60.04780000
_cell_angle_beta   90.00000000
_cell_angle_gamma   90.00000000
_symmetry_Int_Tables_number   1
_chemical_formula_structural   InH5C8O5
_chemical_formula_sum   'In6 H30 C48 O30'
_cell_volume   2966.90751397
_cell_formula_units_Z   6
loop_
 _symmetry_equiv_pos_site_id
 _symmetry_equiv_pos_as_xyz
  1  'x, y, z'
loop_
 _atom_site_type_symbol
 _atom_site_label
 _atom_site_symmetry_multiplicity
 _atom_site_fract_x
 _atom_site_fract_y
 _atom_site_fract_z
 _atom_site_occupancy
  In  In0  1  0.00000000  0.00000000  0.50000000  1.0
  In  In1  1  0.50000000  0.00000000  0.50000000  1.0
  In  In2  1  0.50000000  0.50000000  0.00000000  1.0
  In  In3  1  0.00000000  0.50000000  0.00000000  1.0
  In  In4  1  0.00000000  0.00000000  0.00000000  1.0
  In  In5  1  0.50000000  0.00000000  0.00000000  1.0
  H  H6  1  0.44921000  0.79512000  0.67950000  1.0
  H  H7  1  0.05024000  0.96868000  0.32256000  1.0
  H  H8  1  0.05082000  0.96904000  0.20798000  1.0
  H  H9  1  0.94921000  0.20488000  0.32050000  1.0
  H  H10  1  0.55024000  0.03132000  0.67744000  1.0
  H  H11  1  0.55082000  0.03096000  0.79202000  1.0
  H  H12  1  0.05079000  0.67950000  0.79512000  1.0
  H  H13  1  0.44976000  0.32256000  0.96868000  1.0
  H  H14  1  0.44918000  0.20798000  0.96904000  1.0
  H  H15  1  0.55079000  0.32050000  0.20488000  1.0
  H  H16  1  0.94976000  0.67744000  0.03132000  1.0
  H  H17  1  0.94918000  0.79202000  0.03096000  1.0
  H  H18  1  0.55079000  0.20488000  0.32050000  1.0
  H  H19  1  0.94976000  0.03132000  0.67744000  1.0
  H  H20  1  0.94918000  0.03096000  0.79202000  1.0
  H  H21  1  0.05079000  0.79512000  0.67950000  1.0
  H  H22  1  0.44976000  0.96868000  0.32256000  1.0
  H  H23  1  0.44918000  0.96904000  0.20798000  1.0
  H  H24  1  0.94921000  0.32050000  0.20488000  1.0
  H  H25  1  0.55024000  0.67744000  0.03132000  1.0
  H  H26  1  0.55082000  0.79202000  0.03096000  1.0
  H  H27  1  0.44921000  0.67950000  0.79512000  1.0
  H  H28  1  0.05024000  0.32256000  0.96868000  1.0
  H  H29  1  0.05082000  0.20798000  0.96904000  1.0
  H  H30  1  0.75017000  0.45650000  0.09481000  1.0
  H  H31  1  0.24997000  0.90520000  0.54350000  1.0
  H  H32  1  0.75003000  0.09481000  0.45651000  1.0
  H  H33  1  0.24999000  0.45304000  0.95201000  1.0
  H  H34  1  0.25000000  0.07641000  0.00248000  1.0
  H  H35  1  0.74995000  0.99789000  0.92356000  1.0
  C  C36  1  0.58560000  0.76793000  0.70467000  1.0
  C  C37  1  0.91390000  0.96959000  0.29583000  1.0
  C  C38  1  0.91420000  0.96910000  0.23408000  1.0
  C  C39  1  0.08560000  0.23207000  0.29533000  1.0
  C  C40  1  0.41390000  0.03041000  0.70417000  1.0
  C  C41  1  0.41420000  0.03090000  0.76592000  1.0
  C  C42  1  0.91440000  0.70467000  0.76793000  1.0
  C  C43  1  0.58610000  0.29583000  0.96959000  1.0
  C  C44  1  0.58580000  0.23408000  0.96910000  1.0
  C  C45  1  0.41440000  0.29533000  0.23207000  1.0
  C  C46  1  0.08610000  0.70417000  0.03041000  1.0
  C  C47  1  0.08580000  0.76592000  0.03090000  1.0
  C  C48  1  0.41440000  0.23207000  0.29533000  1.0
  C  C49  1  0.08610000  0.03041000  0.70417000  1.0
  C  C50  1  0.08580000  0.03090000  0.76592000  1.0
  C  C51  1  0.91440000  0.76793000  0.70467000  1.0
  C  C52  1  0.58610000  0.96959000  0.29583000  1.0
  C  C53  1  0.58580000  0.96910000  0.23408000  1.0
  C  C54  1  0.08560000  0.29533000  0.23207000  1.0
  C  C55  1  0.41390000  0.70417000  0.03041000  1.0
  C  C56  1  0.41420000  0.76592000  0.03090000  1.0
  C  C57  1  0.58560000  0.70467000  0.76793000  1.0
  C  C58  1  0.91390000  0.29583000  0.96959000  1.0
  C  C59  1  0.91420000  0.23408000  0.96910000  1.0
  C  C60  1  0.75000000  0.87070000  0.60596000  1.0
  C  C61  1  0.75000000  0.79786000  0.67230000  1.0
  C  C62  1  0.75000000  0.97748000  0.39386000  1.0
  C  C63  1  0.75000000  0.97119000  0.32755000  1.0
  C  C64  1  0.75000000  0.96867000  0.20249000  1.0
  C  C65  1  0.75000000  0.97075000  0.13125000  1.0
  C  C66  1  0.25000000  0.12930000  0.39404000  1.0
  C  C67  1  0.25000000  0.20214000  0.32770000  1.0
  C  C68  1  0.25000000  0.02252000  0.60614000  1.0
  C  C69  1  0.25000000  0.02881000  0.67245000  1.0
  C  C70  1  0.25000000  0.03133000  0.79751000  1.0
  C  C71  1  0.25000000  0.02925000  0.86875000  1.0
  C  C72  1  0.75000000  0.60596000  0.87070000  1.0
  C  C73  1  0.75000000  0.67230000  0.79786000  1.0
  C  C74  1  0.75000000  0.39386000  0.97748000  1.0
  C  C75  1  0.75000000  0.32755000  0.97119000  1.0
  C  C76  1  0.75000000  0.20249000  0.96867000  1.0
  C  C77  1  0.75000000  0.13125000  0.97075000  1.0
  C  C78  1  0.25000000  0.39404000  0.12930000  1.0
  C  C79  1  0.25000000  0.32770000  0.20214000  1.0
  C  C80  1  0.25000000  0.60614000  0.02252000  1.0
  C  C81  1  0.25000000  0.67245000  0.02881000  1.0
  C  C82  1  0.25000000  0.79751000  0.03133000  1.0
  C  C83  1  0.25000000  0.86875000  0.02925000  1.0
  O  O84  1  0.90435000  0.89714000  0.58072000  1.0
  O  O85  1  0.90194000  0.97733000  0.42005000  1.0
  O  O86  1  0.90353000  0.97182000  0.10416000  1.0
  O  O87  1  0.40435000  0.10286000  0.41928000  1.0
  O  O88  1  0.40194000  0.02267000  0.57995000  1.0
  O  O89  1  0.40353000  0.02818000  0.89584000  1.0
  O  O90  1  0.59565000  0.58072000  0.89714000  1.0
  O  O91  1  0.59806000  0.42005000  0.97733000  1.0
  O  O92  1  0.59647000  0.10416000  0.97182000  1.0
  O  O93  1  0.09565000  0.41928000  0.10286000  1.0
  O  O94  1  0.09806000  0.57995000  0.02267000  1.0
  O  O95  1  0.09647000  0.89584000  0.02818000  1.0
  O  O96  1  0.09565000  0.10286000  0.41928000  1.0
  O  O97  1  0.09806000  0.02267000  0.57995000  1.0
  O  O98  1  0.09647000  0.02818000  0.89584000  1.0
  O  O99  1  0.59565000  0.89714000  0.58072000  1.0
  O  O100  1  0.59806000  0.97733000  0.42005000  1.0
  O  O101  1  0.59647000  0.97182000  0.10416000  1.0
  O  O102  1  0.40435000  0.41928000  0.10286000  1.0
  O  O103  1  0.40194000  0.57995000  0.02267000  1.0
  O  O104  1  0.40353000  0.89584000  0.02818000  1.0
  O  O105  1  0.90435000  0.58072000  0.89714000  1.0
  O  O106  1  0.90194000  0.42005000  0.97733000  1.0
  O  O107  1  0.90353000  0.10416000  0.97182000  1.0
  O  O108  1  0.75000000  0.04861000  0.50117000  1.0
  O  O109  1  0.25000000  0.95139000  0.49883000  1.0
  O  O110  1  0.75000000  0.50117000  0.04861000  1.0
  O  O111  1  0.25000000  0.49883000  0.95139000  1.0
  O  O112  1  0.75000000  0.97584000  0.97584000  1.0
  O  O113  1  0.25000000  0.02416000  0.02416000  1.0
