# generated using pymatgen
data_AgH8(CN)2
_symmetry_space_group_name_H-M   'P 1'
_cell_length_a   10.25510000
_cell_length_b   10.63420000
_cell_length_c   6.22960000
_cell_angle_alpha   90.00000000
_cell_angle_beta   114.56800000
_cell_angle_gamma   90.00000000
_symmetry_Int_Tables_number   1
_chemical_formula_structural   AgH8(CN)2
_chemical_formula_sum   'Ag4 H32 C8 N8'
_cell_volume   617.86348382
_cell_formula_units_Z   4
loop_
 _symmetry_equiv_pos_site_id
 _symmetry_equiv_pos_as_xyz
  1  'x, y, z'
loop_
 _atom_site_type_symbol
 _atom_site_label
 _atom_site_symmetry_multiplicity
 _atom_site_fract_x
 _atom_site_fract_y
 _atom_site_fract_z
 _atom_site_occupancy
  Ag  Ag0  1  0.50000000  0.00000000  0.50000000  1.0
  Ag  Ag1  1  0.00000000  0.50000000  0.50000000  1.0
  Ag  Ag2  1  0.50000000  0.00000000  0.00000000  1.0
  Ag  Ag3  1  0.00000000  0.50000000  0.00000000  1.0
  H  H4  1  0.40060000  0.26600000  0.56960000  1.0
  H  H5  1  0.33290000  0.17410000  0.69990000  1.0
  H  H6  1  0.29500000  0.14360000  0.23600000  1.0
  H  H7  1  0.23440000  0.05760000  0.35950000  1.0
  H  H8  1  0.90060000  0.76600000  0.56960000  1.0
  H  H9  1  0.83290000  0.67410000  0.69990000  1.0
  H  H10  1  0.79500000  0.64360000  0.23600000  1.0
  H  H11  1  0.73440000  0.55760000  0.35950000  1.0
  H  H12  1  0.59940000  0.26600000  0.93040000  1.0
  H  H13  1  0.66710000  0.17410000  0.80010000  1.0
  H  H14  1  0.70500000  0.14360000  0.26400000  1.0
  H  H15  1  0.76560000  0.05760000  0.14050000  1.0
  H  H16  1  0.09940000  0.76600000  0.93040000  1.0
  H  H17  1  0.16710000  0.67410000  0.80010000  1.0
  H  H18  1  0.20500000  0.64360000  0.26400000  1.0
  H  H19  1  0.26560000  0.55760000  0.14050000  1.0
  H  H20  1  0.59940000  0.73400000  0.43040000  1.0
  H  H21  1  0.66710000  0.82590000  0.30010000  1.0
  H  H22  1  0.70500000  0.85640000  0.76400000  1.0
  H  H23  1  0.76560000  0.94240000  0.64050000  1.0
  H  H24  1  0.09940000  0.23400000  0.43040000  1.0
  H  H25  1  0.16710000  0.32590000  0.30010000  1.0
  H  H26  1  0.20500000  0.35640000  0.76400000  1.0
  H  H27  1  0.26560000  0.44240000  0.64050000  1.0
  H  H28  1  0.40060000  0.73400000  0.06960000  1.0
  H  H29  1  0.33290000  0.82590000  0.19990000  1.0
  H  H30  1  0.29500000  0.85640000  0.73600000  1.0
  H  H31  1  0.23440000  0.94240000  0.85950000  1.0
  H  H32  1  0.90060000  0.23400000  0.06960000  1.0
  H  H33  1  0.83290000  0.32590000  0.19990000  1.0
  H  H34  1  0.79500000  0.35640000  0.73600000  1.0
  H  H35  1  0.73440000  0.44240000  0.85950000  1.0
  C  C36  1  0.31770000  0.21100000  0.54540000  1.0
  C  C37  1  0.81770000  0.71100000  0.54540000  1.0
  C  C38  1  0.68230000  0.21100000  0.95460000  1.0
  C  C39  1  0.18230000  0.71100000  0.95460000  1.0
  C  C40  1  0.68230000  0.78900000  0.45460000  1.0
  C  C41  1  0.18230000  0.28900000  0.45460000  1.0
  C  C42  1  0.31770000  0.78900000  0.04540000  1.0
  C  C43  1  0.81770000  0.28900000  0.04540000  1.0
  N  N44  1  0.31080000  0.10910000  0.38020000  1.0
  N  N45  1  0.81080000  0.60910000  0.38020000  1.0
  N  N46  1  0.68920000  0.10910000  0.11980000  1.0
  N  N47  1  0.18920000  0.60910000  0.11980000  1.0
  N  N48  1  0.68920000  0.89090000  0.61980000  1.0
  N  N49  1  0.18920000  0.39090000  0.61980000  1.0
  N  N50  1  0.31080000  0.89090000  0.88020000  1.0
  N  N51  1  0.81080000  0.39090000  0.88020000  1.0
