# generated using pymatgen
data_AgH8(CN)2
_symmetry_space_group_name_H-M   'P 1'
_cell_length_a   10.47670000
_cell_length_b   10.48740000
_cell_length_c   6.32250000
_cell_angle_alpha   90.00000000
_cell_angle_beta   115.38500000
_cell_angle_gamma   90.00000000
_symmetry_Int_Tables_number   1
_chemical_formula_structural   AgH8(CN)2
_chemical_formula_sum   'Ag4 H32 C8 N8'
_cell_volume   627.60172216
_cell_formula_units_Z   4
loop_
 _symmetry_equiv_pos_site_id
 _symmetry_equiv_pos_as_xyz
  1  'x, y, z'
loop_
 _atom_site_type_symbol
 _atom_site_label
 _atom_site_symmetry_multiplicity
 _atom_site_fract_x
 _atom_site_fract_y
 _atom_site_fract_z
 _atom_site_occupancy
  Ag  Ag0  1  0.50000000  0.00000000  0.50000000  1.0
  Ag  Ag1  1  0.00000000  0.50000000  0.50000000  1.0
  Ag  Ag2  1  0.50000000  0.00000000  0.00000000  1.0
  Ag  Ag3  1  0.00000000  0.50000000  0.00000000  1.0
  H  H4  1  0.39710000  0.26450000  0.58270000  1.0
  H  H5  1  0.32590000  0.16970000  0.69130000  1.0
  H  H6  1  0.30090000  0.14830000  0.24610000  1.0
  H  H7  1  0.24040000  0.05880000  0.35320000  1.0
  H  H8  1  0.89710000  0.76450000  0.58270000  1.0
  H  H9  1  0.82590000  0.66970000  0.69130000  1.0
  H  H10  1  0.80090000  0.64830000  0.24610000  1.0
  H  H11  1  0.74040000  0.55880000  0.35320000  1.0
  H  H12  1  0.60290000  0.26450000  0.91730000  1.0
  H  H13  1  0.67410000  0.16970000  0.80870000  1.0
  H  H14  1  0.69910000  0.14830000  0.25390000  1.0
  H  H15  1  0.75960000  0.05880000  0.14680000  1.0
  H  H16  1  0.10290000  0.76450000  0.91730000  1.0
  H  H17  1  0.17410000  0.66970000  0.80870000  1.0
  H  H18  1  0.19910000  0.64830000  0.25390000  1.0
  H  H19  1  0.25960000  0.55880000  0.14680000  1.0
  H  H20  1  0.60290000  0.73550000  0.41730000  1.0
  H  H21  1  0.67410000  0.83030000  0.30870000  1.0
  H  H22  1  0.69910000  0.85170000  0.75390000  1.0
  H  H23  1  0.75960000  0.94120000  0.64680000  1.0
  H  H24  1  0.10290000  0.23550000  0.41730000  1.0
  H  H25  1  0.17410000  0.33030000  0.30870000  1.0
  H  H26  1  0.19910000  0.35170000  0.75390000  1.0
  H  H27  1  0.25960000  0.44120000  0.64680000  1.0
  H  H28  1  0.39710000  0.73550000  0.08270000  1.0
  H  H29  1  0.32590000  0.83030000  0.19130000  1.0
  H  H30  1  0.30090000  0.85170000  0.74610000  1.0
  H  H31  1  0.24040000  0.94120000  0.85320000  1.0
  H  H32  1  0.89710000  0.23550000  0.08270000  1.0
  H  H33  1  0.82590000  0.33030000  0.19130000  1.0
  H  H34  1  0.80090000  0.35170000  0.74610000  1.0
  H  H35  1  0.74040000  0.44120000  0.85320000  1.0
  C  C36  1  0.31570000  0.20980000  0.54670000  1.0
  C  C37  1  0.81570000  0.70980000  0.54670000  1.0
  C  C38  1  0.68430000  0.20980000  0.95330000  1.0
  C  C39  1  0.18430000  0.70980000  0.95330000  1.0
  C  C40  1  0.68430000  0.79020000  0.45330000  1.0
  C  C41  1  0.18430000  0.29020000  0.45330000  1.0
  C  C42  1  0.31570000  0.79020000  0.04670000  1.0
  C  C43  1  0.81570000  0.29020000  0.04670000  1.0
  N  N44  1  0.31430000  0.11090000  0.38210000  1.0
  N  N45  1  0.81430000  0.61090000  0.38210000  1.0
  N  N46  1  0.68570000  0.11090000  0.11790000  1.0
  N  N47  1  0.18570000  0.61090000  0.11790000  1.0
  N  N48  1  0.68570000  0.88910000  0.61790000  1.0
  N  N49  1  0.18570000  0.38910000  0.61790000  1.0
  N  N50  1  0.31430000  0.88910000  0.88210000  1.0
  N  N51  1  0.81430000  0.38910000  0.88210000  1.0
