# generated using pymatgen
data_U3P4H8(C5O6)2
_symmetry_space_group_name_H-M   'P 1'
_cell_length_a   9.60500000
_cell_length_b   21.27800000
_cell_length_c   16.74700000
_cell_angle_alpha   90.00000000
_cell_angle_beta   91.46400000
_cell_angle_gamma   90.00000000
_symmetry_Int_Tables_number   1
_chemical_formula_structural   U3P4H8(C5O6)2
_chemical_formula_sum   'U12 P16 H32 C40 O48'
_cell_volume   3421.55406183
_cell_formula_units_Z   4
loop_
 _symmetry_equiv_pos_site_id
 _symmetry_equiv_pos_as_xyz
  1  'x, y, z'
loop_
 _atom_site_type_symbol
 _atom_site_label
 _atom_site_symmetry_multiplicity
 _atom_site_fract_x
 _atom_site_fract_y
 _atom_site_fract_z
 _atom_site_occupancy
  U  U0  1  0.78101000  0.24148000  0.96260000  1.0
  U  U1  1  0.70895000  0.24190000  0.51626000  1.0
  U  U2  1  0.24392000  0.13977000  0.74296000  1.0
  U  U3  1  0.71899000  0.74148000  0.53740000  1.0
  U  U4  1  0.79105000  0.74190000  0.98374000  1.0
  U  U5  1  0.25608000  0.63977000  0.75704000  1.0
  U  U6  1  0.21899000  0.75852000  0.03740000  1.0
  U  U7  1  0.29105000  0.75810000  0.48374000  1.0
  U  U8  1  0.75608000  0.86023000  0.25704000  1.0
  U  U9  1  0.28101000  0.25852000  0.46260000  1.0
  U  U10  1  0.20895000  0.25810000  0.01626000  1.0
  U  U11  1  0.74392000  0.36023000  0.24296000  1.0
  P  P12  1  0.53180000  0.34370000  0.05641000  1.0
  P  P13  1  0.95750000  0.34748000  0.42830000  1.0
  P  P14  1  0.50000000  0.14147000  0.57761000  1.0
  P  P15  1  0.98970000  0.13760000  0.90717000  1.0
  P  P16  1  0.96820000  0.84370000  0.44359000  1.0
  P  P17  1  0.54250000  0.84748000  0.07170000  1.0
  P  P18  1  0.00000000  0.64147000  0.92239000  1.0
  P  P19  1  0.51030000  0.63760000  0.59283000  1.0
  P  P20  1  0.46820000  0.65630000  0.94359000  1.0
  P  P21  1  0.04250000  0.65252000  0.57170000  1.0
  P  P22  1  0.50000000  0.85853000  0.42239000  1.0
  P  P23  1  0.01030000  0.86240000  0.09283000  1.0
  P  P24  1  0.03180000  0.15630000  0.55641000  1.0
  P  P25  1  0.45750000  0.15252000  0.92830000  1.0
  P  P26  1  0.00000000  0.35853000  0.07761000  1.0
  P  P27  1  0.48970000  0.36240000  0.40717000  1.0
  H  H28  1  0.40560000  0.40300000  0.96540000  1.0
  H  H29  1  0.37160000  0.42400000  0.05230000  1.0
  H  H30  1  0.59600000  0.47610000  0.05700000  1.0
  H  H31  1  0.60360000  0.46330000  0.96500000  1.0
  H  H32  1  0.08850000  0.40040000  0.52210000  1.0
  H  H33  1  0.11800000  0.42650000  0.43700000  1.0
  H  H34  1  0.89810000  0.48110000  0.44260000  1.0
  H  H35  1  0.89500000  0.46220000  0.53300000  1.0
  H  H36  1  0.09440000  0.90300000  0.53460000  1.0
  H  H37  1  0.12840000  0.92400000  0.44770000  1.0
  H  H38  1  0.90400000  0.97610000  0.44300000  1.0
  H  H39  1  0.89640000  0.96330000  0.53500000  1.0
  H  H40  1  0.41150000  0.90040000  0.97790000  1.0
  H  H41  1  0.38200000  0.92650000  0.06300000  1.0
  H  H42  1  0.60190000  0.98110000  0.05740000  1.0
  H  H43  1  0.60500000  0.96220000  0.96700000  1.0
  H  H44  1  0.59440000  0.59700000  0.03460000  1.0
  H  H45  1  0.62840000  0.57600000  0.94770000  1.0
  H  H46  1  0.40400000  0.52390000  0.94300000  1.0
  H  H47  1  0.39640000  0.53670000  0.03500000  1.0
  H  H48  1  0.91150000  0.59960000  0.47790000  1.0
  H  H49  1  0.88200000  0.57350000  0.56300000  1.0
  H  H50  1  0.10190000  0.51890000  0.55740000  1.0
  H  H51  1  0.10500000  0.53780000  0.46700000  1.0
  H  H52  1  0.90560000  0.09700000  0.46540000  1.0
  H  H53  1  0.87160000  0.07600000  0.55230000  1.0
  H  H54  1  0.09600000  0.02390000  0.55700000  1.0
  H  H55  1  0.10360000  0.03670000  0.46500000  1.0
  H  H56  1  0.58850000  0.09960000  0.02210000  1.0
  H  H57  1  0.61800000  0.07350000  0.93700000  1.0
  H  H58  1  0.39810000  0.01890000  0.94260000  1.0
  H  H59  1  0.39500000  0.03780000  0.03300000  1.0
  C  C60  1  0.44690000  0.41300000  0.01730000  1.0
  C  C61  1  0.54040000  0.47060000  0.00830000  1.0
  C  C62  1  0.04440000  0.41380000  0.47220000  1.0
  C  C63  1  0.95600000  0.47150000  0.48930000  1.0
  C  C64  1  0.02840000  0.06950000  0.96510000  1.0
  C  C65  1  0.98500000  0.01060000  0.93220000  1.0
  C  C66  1  0.45560000  0.06790000  0.53310000  1.0
  C  C67  1  0.50700000  0.01190000  0.57580000  1.0
  C  C68  1  0.52800000  0.05570000  0.46260000  1.0
  C  C69  1  0.96600000  0.05600000  0.03390000  1.0
  C  C70  1  0.05310000  0.91300000  0.48270000  1.0
  C  C71  1  0.95960000  0.97060000  0.49170000  1.0
  C  C72  1  0.45560000  0.91380000  0.02780000  1.0
  C  C73  1  0.54400000  0.97150000  0.01070000  1.0
  C  C74  1  0.47160000  0.56950000  0.53490000  1.0
  C  C75  1  0.51500000  0.51060000  0.56780000  1.0
  C  C76  1  0.04440000  0.56790000  0.96690000  1.0
  C  C77  1  0.99300000  0.51190000  0.92420000  1.0
  C  C78  1  0.97200000  0.55570000  0.03740000  1.0
  C  C79  1  0.53400000  0.55600000  0.46610000  1.0
  C  C80  1  0.55310000  0.58700000  0.98270000  1.0
  C  C81  1  0.45960000  0.52940000  0.99170000  1.0
  C  C82  1  0.95560000  0.58620000  0.52780000  1.0
  C  C83  1  0.04400000  0.52850000  0.51070000  1.0
  C  C84  1  0.97160000  0.93050000  0.03490000  1.0
  C  C85  1  0.01500000  0.98940000  0.06780000  1.0
  C  C86  1  0.54440000  0.93210000  0.46690000  1.0
  C  C87  1  0.49300000  0.98810000  0.42420000  1.0
  C  C88  1  0.47200000  0.94430000  0.53740000  1.0
  C  C89  1  0.03400000  0.94400000  0.96610000  1.0
  C  C90  1  0.94690000  0.08700000  0.51730000  1.0
  C  C91  1  0.04040000  0.02940000  0.50830000  1.0
  C  C92  1  0.54440000  0.08620000  0.97220000  1.0
  C  C93  1  0.45600000  0.02850000  0.98930000  1.0
  C  C94  1  0.52840000  0.43050000  0.46510000  1.0
  C  C95  1  0.48500000  0.48940000  0.43220000  1.0
  C  C96  1  0.95560000  0.43210000  0.03310000  1.0
  C  C97  1  0.00700000  0.48810000  0.07580000  1.0
  C  C98  1  0.02800000  0.44430000  0.96260000  1.0
  C  C99  1  0.46600000  0.44400000  0.53390000  1.0
  O  O100  1  0.64760000  0.32420000  0.00270000  1.0
  O  O101  1  0.41930000  0.29270000  0.06370000  1.0
  O  O102  1  0.58800000  0.36050000  0.13920000  1.0
  O  O103  1  0.84130000  0.32640000  0.48130000  1.0
  O  O104  1  0.06670000  0.29600000  0.41700000  1.0
  O  O105  1  0.89980000  0.36760000  0.34720000  1.0
  O  O106  1  0.65650000  0.14730000  0.58850000  1.0
  O  O107  1  0.45950000  0.19530000  0.51990000  1.0
  O  O108  1  0.42590000  0.14680000  0.65620000  1.0
  O  O109  1  0.03130000  0.19640000  0.95520000  1.0
  O  O110  1  0.83410000  0.14540000  0.89220000  1.0
  O  O111  1  0.06770000  0.13080000  0.83040000  1.0
  O  O112  1  0.85240000  0.82420000  0.49730000  1.0
  O  O113  1  0.08070000  0.79270000  0.43630000  1.0
  O  O114  1  0.91200000  0.86050000  0.36080000  1.0
  O  O115  1  0.65870000  0.82640000  0.01870000  1.0
  O  O116  1  0.43330000  0.79600000  0.08300000  1.0
  O  O117  1  0.60020000  0.86760000  0.15280000  1.0
  O  O118  1  0.84350000  0.64730000  0.91150000  1.0
  O  O119  1  0.04050000  0.69530000  0.98010000  1.0
  O  O120  1  0.07410000  0.64680000  0.84380000  1.0
  O  O121  1  0.46870000  0.69640000  0.54480000  1.0
  O  O122  1  0.66590000  0.64540000  0.60780000  1.0
  O  O123  1  0.43230000  0.63080000  0.66960000  1.0
  O  O124  1  0.35240000  0.67580000  0.99730000  1.0
  O  O125  1  0.58070000  0.70730000  0.93630000  1.0
  O  O126  1  0.41200000  0.63950000  0.86080000  1.0
  O  O127  1  0.15870000  0.67360000  0.51870000  1.0
  O  O128  1  0.93330000  0.70400000  0.58300000  1.0
  O  O129  1  0.10020000  0.63240000  0.65280000  1.0
  O  O130  1  0.34350000  0.85270000  0.41150000  1.0
  O  O131  1  0.54050000  0.80470000  0.48010000  1.0
  O  O132  1  0.57410000  0.85320000  0.34380000  1.0
  O  O133  1  0.96870000  0.80360000  0.04480000  1.0
  O  O134  1  0.16590000  0.85460000  0.10780000  1.0
  O  O135  1  0.93230000  0.86920000  0.16960000  1.0
  O  O136  1  0.14760000  0.17580000  0.50270000  1.0
  O  O137  1  0.91930000  0.20730000  0.56370000  1.0
  O  O138  1  0.08800000  0.13950000  0.63920000  1.0
  O  O139  1  0.34130000  0.17360000  0.98130000  1.0
  O  O140  1  0.56670000  0.20400000  0.91700000  1.0
  O  O141  1  0.39980000  0.13240000  0.84720000  1.0
  O  O142  1  0.15650000  0.35270000  0.08850000  1.0
  O  O143  1  0.95950000  0.30470000  0.01990000  1.0
  O  O144  1  0.92590000  0.35320000  0.15620000  1.0
  O  O145  1  0.53130000  0.30360000  0.45520000  1.0
  O  O146  1  0.33410000  0.35460000  0.39220000  1.0
  O  O147  1  0.56770000  0.36920000  0.33040000  1.0
