# generated using pymatgen
data_Eu2H5C14(NO4)3
_symmetry_space_group_name_H-M   'P 1'
_cell_length_a   9.57400000
_cell_length_b   22.54700000
_cell_length_c   10.12200000
_cell_angle_alpha   90.00000000
_cell_angle_beta   102.04000000
_cell_angle_gamma   90.00000000
_symmetry_Int_Tables_number   1
_chemical_formula_structural   Eu2H5C14(NO4)3
_chemical_formula_sum   'Eu8 H20 C56 N12 O48'
_cell_volume   2136.92046513
_cell_formula_units_Z   4
loop_
 _symmetry_equiv_pos_site_id
 _symmetry_equiv_pos_as_xyz
  1  'x, y, z'
loop_
 _atom_site_type_symbol
 _atom_site_label
 _atom_site_symmetry_multiplicity
 _atom_site_fract_x
 _atom_site_fract_y
 _atom_site_fract_z
 _atom_site_occupancy
  Eu  Eu0  1  0.74915000  0.72216000  0.95684000  1.0
  Eu  Eu1  1  0.28188000  0.56499000  0.14376000  1.0
  Eu  Eu2  1  0.25085000  0.22216000  0.54316000  1.0
  Eu  Eu3  1  0.71812000  0.06499000  0.35624000  1.0
  Eu  Eu4  1  0.25085000  0.27784000  0.04316000  1.0
  Eu  Eu5  1  0.71812000  0.43501000  0.85624000  1.0
  Eu  Eu6  1  0.74915000  0.77784000  0.45684000  1.0
  Eu  Eu7  1  0.28188000  0.93501000  0.64376000  1.0
  H  H8  1  0.47554000  0.57161000  0.67975000  1.0
  H  H9  1  0.27315000  0.50214000  0.68772000  1.0
  H  H10  1  0.10811000  0.42161000  0.65042000  1.0
  H  H11  1  0.02983000  0.38576000  0.42861000  1.0
  H  H12  1  0.09700000  0.43336000  0.25154000  1.0
  H  H13  1  0.52446000  0.07161000  0.82025000  1.0
  H  H14  1  0.72685000  0.00214000  0.81228000  1.0
  H  H15  1  0.89189000  0.92161000  0.84958000  1.0
  H  H16  1  0.97017000  0.88576000  0.07139000  1.0
  H  H17  1  0.90300000  0.93336000  0.24846000  1.0
  H  H18  1  0.52446000  0.42839000  0.32025000  1.0
  H  H19  1  0.72685000  0.49786000  0.31228000  1.0
  H  H20  1  0.89189000  0.57839000  0.34958000  1.0
  H  H21  1  0.97017000  0.61424000  0.57139000  1.0
  H  H22  1  0.90300000  0.56664000  0.74846000  1.0
  H  H23  1  0.47554000  0.92839000  0.17975000  1.0
  H  H24  1  0.27315000  0.99786000  0.18772000  1.0
  H  H25  1  0.10811000  0.07839000  0.15042000  1.0
  H  H26  1  0.02983000  0.11424000  0.92861000  1.0
  H  H27  1  0.09700000  0.06664000  0.75154000  1.0
  C  C28  1  0.04780000  0.65027000  0.97500000  1.0
  C  C29  1  0.06270000  0.67565000  0.12200000  1.0
  C  C30  1  0.04380000  0.47986000  0.96180000  1.0
  C  C31  1  0.47860000  0.52144000  0.93870000  1.0
  C  C32  1  0.53950000  0.66089000  0.29760000  1.0
  C  C33  1  0.64080000  0.66910000  0.65410000  1.0
  C  C34  1  0.50230000  0.62899000  0.41420000  1.0
  C  C35  1  0.54400000  0.63103000  0.55420000  1.0
  C  C36  1  0.38220000  0.56007000  0.49250000  1.0
  C  C37  1  0.27850000  0.51114000  0.48730000  1.0
  C  C38  1  0.23730000  0.48710000  0.59950000  1.0
  C  C39  1  0.14030000  0.43950000  0.57720000  1.0
  C  C40  1  0.09210000  0.41900000  0.44540000  1.0
  C  C41  1  0.13460000  0.44680000  0.34090000  1.0
  C  C42  1  0.95220000  0.15027000  0.52500000  1.0
  C  C43  1  0.93730000  0.17565000  0.37800000  1.0
  C  C44  1  0.95620000  0.97986000  0.53820000  1.0
  C  C45  1  0.52140000  0.02144000  0.56130000  1.0
  C  C46  1  0.46050000  0.16089000  0.20240000  1.0
  C  C47  1  0.35920000  0.16910000  0.84590000  1.0
  C  C48  1  0.49770000  0.12899000  0.08580000  1.0
  C  C49  1  0.45600000  0.13103000  0.94580000  1.0
  C  C50  1  0.61780000  0.06007000  0.00750000  1.0
  C  C51  1  0.72150000  0.01114000  0.01270000  1.0
  C  C52  1  0.76270000  0.98710000  0.90050000  1.0
  C  C53  1  0.85970000  0.93950000  0.92280000  1.0
  C  C54  1  0.90790000  0.91900000  0.05460000  1.0
  C  C55  1  0.86540000  0.94680000  0.15910000  1.0
  C  C56  1  0.95220000  0.34973000  0.02500000  1.0
  C  C57  1  0.93730000  0.32435000  0.87800000  1.0
  C  C58  1  0.95620000  0.52014000  0.03820000  1.0
  C  C59  1  0.52140000  0.47856000  0.06130000  1.0
  C  C60  1  0.46050000  0.33911000  0.70240000  1.0
  C  C61  1  0.35920000  0.33090000  0.34590000  1.0
  C  C62  1  0.49770000  0.37101000  0.58580000  1.0
  C  C63  1  0.45600000  0.36897000  0.44580000  1.0
  C  C64  1  0.61780000  0.43993000  0.50750000  1.0
  C  C65  1  0.72150000  0.48886000  0.51270000  1.0
  C  C66  1  0.76270000  0.51290000  0.40050000  1.0
  C  C67  1  0.85970000  0.56050000  0.42280000  1.0
  C  C68  1  0.90790000  0.58100000  0.55460000  1.0
  C  C69  1  0.86540000  0.55320000  0.65910000  1.0
  C  C70  1  0.04780000  0.84973000  0.47500000  1.0
  C  C71  1  0.06270000  0.82435000  0.62200000  1.0
  C  C72  1  0.04380000  0.02014000  0.46180000  1.0
  C  C73  1  0.47860000  0.97856000  0.43870000  1.0
  C  C74  1  0.53950000  0.83911000  0.79760000  1.0
  C  C75  1  0.64080000  0.83090000  0.15410000  1.0
  C  C76  1  0.50230000  0.87101000  0.91420000  1.0
  C  C77  1  0.54400000  0.86897000  0.05420000  1.0
  C  C78  1  0.38220000  0.93993000  0.99250000  1.0
  C  C79  1  0.27850000  0.98886000  0.98730000  1.0
  C  C80  1  0.23730000  0.01290000  0.09950000  1.0
  C  C81  1  0.14030000  0.06050000  0.07720000  1.0
  C  C82  1  0.09210000  0.08100000  0.94540000  1.0
  C  C83  1  0.13460000  0.05320000  0.84090000  1.0
  N  N84  1  0.22720000  0.49221000  0.35820000  1.0
  N  N85  1  0.40180000  0.58492000  0.37860000  1.0
  N  N86  1  0.46540000  0.58658000  0.60030000  1.0
  N  N87  1  0.77280000  0.99221000  0.14180000  1.0
  N  N88  1  0.59820000  0.08492000  0.12140000  1.0
  N  N89  1  0.53460000  0.08658000  0.89970000  1.0
  N  N90  1  0.77280000  0.50779000  0.64180000  1.0
  N  N91  1  0.59820000  0.41508000  0.62140000  1.0
  N  N92  1  0.53460000  0.41342000  0.39970000  1.0
  N  N93  1  0.22720000  0.00779000  0.85820000  1.0
  N  N94  1  0.40180000  0.91508000  0.87860000  1.0
  N  N95  1  0.46540000  0.91342000  0.10030000  1.0
  O  O96  1  0.93250000  0.66083000  0.89450000  1.0
  O  O97  1  0.96530000  0.71058000  0.13910000  1.0
  O  O98  1  0.16790000  0.65797000  0.20950000  1.0
  O  O99  1  0.15110000  0.62078000  0.95270000  1.0
  O  O100  1  0.39950000  0.56390000  0.95120000  1.0
  O  O101  1  0.52990000  0.50961000  0.83540000  1.0
  O  O102  1  0.17830000  0.48098000  0.00370000  1.0
  O  O103  1  0.97570000  0.44898000  0.86740000  1.0
  O  O104  1  0.47820000  0.63990000  0.18190000  1.0
  O  O105  1  0.62380000  0.70400000  0.31170000  1.0
  O  O106  1  0.72050000  0.70621000  0.61390000  1.0
  O  O107  1  0.63290000  0.66118000  0.77540000  1.0
  O  O108  1  0.06750000  0.16083000  0.60550000  1.0
  O  O109  1  0.03470000  0.21058000  0.36090000  1.0
  O  O110  1  0.83210000  0.15797000  0.29050000  1.0
  O  O111  1  0.84890000  0.12078000  0.54730000  1.0
  O  O112  1  0.60050000  0.06390000  0.54880000  1.0
  O  O113  1  0.47010000  0.00961000  0.66460000  1.0
  O  O114  1  0.82170000  0.98098000  0.49630000  1.0
  O  O115  1  0.02430000  0.94898000  0.63260000  1.0
  O  O116  1  0.52180000  0.13990000  0.31810000  1.0
  O  O117  1  0.37620000  0.20400000  0.18830000  1.0
  O  O118  1  0.27950000  0.20621000  0.88610000  1.0
  O  O119  1  0.36710000  0.16118000  0.72460000  1.0
  O  O120  1  0.06750000  0.33917000  0.10550000  1.0
  O  O121  1  0.03470000  0.28942000  0.86090000  1.0
  O  O122  1  0.83210000  0.34203000  0.79050000  1.0
  O  O123  1  0.84890000  0.37922000  0.04730000  1.0
  O  O124  1  0.60050000  0.43610000  0.04880000  1.0
  O  O125  1  0.47010000  0.49039000  0.16460000  1.0
  O  O126  1  0.82170000  0.51902000  0.99630000  1.0
  O  O127  1  0.02430000  0.55102000  0.13260000  1.0
  O  O128  1  0.52180000  0.36010000  0.81810000  1.0
  O  O129  1  0.37620000  0.29600000  0.68830000  1.0
  O  O130  1  0.27950000  0.29379000  0.38610000  1.0
  O  O131  1  0.36710000  0.33882000  0.22460000  1.0
  O  O132  1  0.93250000  0.83917000  0.39450000  1.0
  O  O133  1  0.96530000  0.78942000  0.63910000  1.0
  O  O134  1  0.16790000  0.84203000  0.70950000  1.0
  O  O135  1  0.15110000  0.87922000  0.45270000  1.0
  O  O136  1  0.39950000  0.93610000  0.45120000  1.0
  O  O137  1  0.52990000  0.99039000  0.33540000  1.0
  O  O138  1  0.17830000  0.01902000  0.50370000  1.0
  O  O139  1  0.97570000  0.05102000  0.36740000  1.0
  O  O140  1  0.47820000  0.86010000  0.68190000  1.0
  O  O141  1  0.62380000  0.79600000  0.81170000  1.0
  O  O142  1  0.72050000  0.79379000  0.11390000  1.0
  O  O143  1  0.63290000  0.83882000  0.27540000  1.0
