# generated using pymatgen
data_U2CuP4H19C28N2O12F
_symmetry_space_group_name_H-M   'P 1'
_cell_length_a   9.91490000
_cell_length_b   18.60800000
_cell_length_c   19.97900000
_cell_angle_alpha   93.92600000
_cell_angle_beta   90.00000000
_cell_angle_gamma   90.00000000
_symmetry_Int_Tables_number   1
_chemical_formula_structural   U2CuP4H19C28N2O12F
_chemical_formula_sum   'U8 Cu4 P16 H76 C112 N8 O48 F4'
_cell_volume   3677.40473698
_cell_formula_units_Z   4
loop_
 _symmetry_equiv_pos_site_id
 _symmetry_equiv_pos_as_xyz
  1  'x, y, z'
loop_
 _atom_site_type_symbol
 _atom_site_label
 _atom_site_symmetry_multiplicity
 _atom_site_fract_x
 _atom_site_fract_y
 _atom_site_fract_z
 _atom_site_occupancy
  U  U0  1  0.03196000  0.18582000  0.70808000  1.0
  U  U1  1  0.53196000  0.81418000  0.79192000  1.0
  U  U2  1  0.86873000  0.19034000  0.25664000  1.0
  U  U3  1  0.96804000  0.81418000  0.29192000  1.0
  U  U4  1  0.36873000  0.80966000  0.24336000  1.0
  U  U5  1  0.13127000  0.80966000  0.74336000  1.0
  U  U6  1  0.46804000  0.18582000  0.20808000  1.0
  U  U7  1  0.63127000  0.19034000  0.75664000  1.0
  Cu  Cu8  1  0.87185000  0.12667000  0.98271000  1.0
  Cu  Cu9  1  0.62815000  0.12667000  0.48271000  1.0
  Cu  Cu10  1  0.37185000  0.87333000  0.51729000  1.0
  Cu  Cu11  1  0.12815000  0.87333000  0.01729000  1.0
  P  P12  1  0.40390000  0.79416000  0.95897000  1.0
  P  P13  1  0.37250000  0.18916000  0.62631000  1.0
  P  P14  1  0.79720000  0.77198000  0.65845000  1.0
  P  P15  1  0.09610000  0.79416000  0.45897000  1.0
  P  P16  1  0.16700000  0.76337000  0.12721000  1.0
  P  P17  1  0.83300000  0.23663000  0.87279000  1.0
  P  P18  1  0.20280000  0.22802000  0.34155000  1.0
  P  P19  1  0.62750000  0.81084000  0.37369000  1.0
  P  P20  1  0.12750000  0.18916000  0.12631000  1.0
  P  P21  1  0.90390000  0.20584000  0.54103000  1.0
  P  P22  1  0.70280000  0.77198000  0.15845000  1.0
  P  P23  1  0.87250000  0.81084000  0.87369000  1.0
  P  P24  1  0.33300000  0.76337000  0.62721000  1.0
  P  P25  1  0.59610000  0.20584000  0.04103000  1.0
  P  P26  1  0.66700000  0.23663000  0.37279000  1.0
  P  P27  1  0.29720000  0.22802000  0.84155000  1.0
  H  H28  1  0.64750000  0.52850000  0.62290000  1.0
  H  H29  1  0.08960000  0.41380000  0.02010000  1.0
  H  H30  1  0.26010000  0.92590000  0.88170000  1.0
  H  H31  1  0.31030000  0.30520000  0.71560000  1.0
  H  H32  1  0.54380000  0.54790000  0.95010000  1.0
  H  H33  1  0.78390000  0.29410000  0.11670000  1.0
  H  H34  1  0.07660000  0.11350000  0.86000000  1.0
  H  H35  1  0.27700000  0.02560000  0.31770000  1.0
  H  H36  1  0.07870000  0.29020000  0.02170000  1.0
  H  H37  1  0.45620000  0.45210000  0.04990000  1.0
  H  H38  1  0.41040000  0.41380000  0.52010000  1.0
  H  H39  1  0.86870000  0.34270000  0.77770000  1.0
  H  H40  1  0.45250000  0.55270000  0.11960000  1.0
  H  H41  1  0.17150000  0.52570000  0.01810000  1.0
  H  H42  1  0.87940000  0.65000000  0.14570000  1.0
  H  H43  1  0.19830000  0.42760000  0.21350000  1.0
  H  H44  1  0.76010000  0.07410000  0.61830000  1.0
  H  H45  1  0.37930000  0.53220000  0.71840000  1.0
  H  H46  1  0.19510000  0.58580000  0.85200000  1.0
  H  H47  1  0.32570000  0.64980000  0.52150000  1.0
  H  H48  1  0.82570000  0.35020000  0.97850000  1.0
  H  H49  1  0.57870000  0.70980000  0.47830000  1.0
  H  H50  1  0.97810000  0.32460000  0.36510000  1.0
  H  H51  1  0.80170000  0.57240000  0.78650000  1.0
  H  H52  1  0.17430000  0.64980000  0.02150000  1.0
  H  H53  1  0.37940000  0.35000000  0.35430000  1.0
  H  H54  1  0.81030000  0.69480000  0.78440000  1.0
  H  H55  1  0.04380000  0.45210000  0.54990000  1.0
  H  H56  1  0.95620000  0.54790000  0.45010000  1.0
  H  H57  1  0.12060000  0.35000000  0.85430000  1.0
  H  H58  1  0.87930000  0.46780000  0.78160000  1.0
  H  H59  1  0.95250000  0.44730000  0.38040000  1.0
  H  H60  1  0.92340000  0.88650000  0.14000000  1.0
  H  H61  1  0.30170000  0.42760000  0.71350000  1.0
  H  H62  1  0.72300000  0.97440000  0.68230000  1.0
  H  H63  1  0.42340000  0.11350000  0.36000000  1.0
  H  H64  1  0.92130000  0.70980000  0.97830000  1.0
  H  H65  1  0.21610000  0.70590000  0.88330000  1.0
  H  H66  1  0.47810000  0.67540000  0.13490000  1.0
  H  H67  1  0.36870000  0.65730000  0.72230000  1.0
  H  H68  1  0.28390000  0.70590000  0.38330000  1.0
  H  H69  1  0.04750000  0.55270000  0.61960000  1.0
  H  H70  1  0.71610000  0.29410000  0.61670000  1.0
  H  H71  1  0.62060000  0.65000000  0.64570000  1.0
  H  H72  1  0.12070000  0.53220000  0.21840000  1.0
  H  H73  1  0.32850000  0.52570000  0.51810000  1.0
  H  H74  1  0.18970000  0.30520000  0.21560000  1.0
  H  H75  1  0.23990000  0.92590000  0.38170000  1.0
  H  H76  1  0.02190000  0.67540000  0.63490000  1.0
  H  H77  1  0.80490000  0.41420000  0.14800000  1.0
  H  H78  1  0.42130000  0.29020000  0.52170000  1.0
  H  H79  1  0.62070000  0.46780000  0.28160000  1.0
  H  H80  1  0.85250000  0.52850000  0.12290000  1.0
  H  H81  1  0.68970000  0.69480000  0.28440000  1.0
  H  H82  1  0.73990000  0.07410000  0.11830000  1.0
  H  H83  1  0.14750000  0.47150000  0.87710000  1.0
  H  H84  1  0.77700000  0.97440000  0.18230000  1.0
  H  H85  1  0.67150000  0.47430000  0.48190000  1.0
  H  H86  1  0.06180000  0.33220000  0.52240000  1.0
  H  H87  1  0.54750000  0.44730000  0.88040000  1.0
  H  H88  1  0.91040000  0.58620000  0.97990000  1.0
  H  H89  1  0.30490000  0.58580000  0.35200000  1.0
  H  H90  1  0.58960000  0.58620000  0.47990000  1.0
  H  H91  1  0.13130000  0.65730000  0.22230000  1.0
  H  H92  1  0.67430000  0.35020000  0.47850000  1.0
  H  H93  1  0.52190000  0.32460000  0.86510000  1.0
  H  H94  1  0.35250000  0.47150000  0.37710000  1.0
  H  H95  1  0.69510000  0.41420000  0.64800000  1.0
  H  H96  1  0.57660000  0.88650000  0.64000000  1.0
  H  H97  1  0.63130000  0.34270000  0.27770000  1.0
  H  H98  1  0.43820000  0.33220000  0.02240000  1.0
  H  H99  1  0.82850000  0.47430000  0.98190000  1.0
  H  H100  1  0.22300000  0.02560000  0.81770000  1.0
  H  H101  1  0.56180000  0.66780000  0.97760000  1.0
  H  H102  1  0.93820000  0.66780000  0.47760000  1.0
  H  H103  1  0.69830000  0.57240000  0.28650000  1.0
  C  C104  1  0.72340000  0.55780000  0.62650000  1.0
  C  C105  1  0.34920000  0.47310000  0.88170000  1.0
  C  C106  1  0.15190000  0.66650000  0.12320000  1.0
  C  C107  1  0.17380000  0.40000000  0.17490000  1.0
  C  C108  1  0.39760000  0.31780000  0.56050000  1.0
  C  C109  1  0.33530000  0.62650000  0.56090000  1.0
  C  C110  1  0.51300000  0.34900000  0.04680000  1.0
  C  C111  1  0.53850000  0.99460000  0.53020000  1.0
  C  C112  1  0.63330000  0.44450000  0.32090000  1.0
  C  C113  1  0.19760000  0.96100000  0.89590000  1.0
  C  C114  1  0.38970000  0.70110000  0.93550000  1.0
  C  C115  1  0.55340000  0.64560000  0.13450000  1.0
  C  C116  1  0.13330000  0.55550000  0.17910000  1.0
  C  C117  1  0.46140000  0.42770000  0.87640000  1.0
  C  C118  1  0.96150000  0.99460000  0.03020000  1.0
  C  C119  1  0.86210000  0.36910000  0.81880000  1.0
  C  C120  1  0.77660000  0.55780000  0.12650000  1.0
  C  C121  1  0.02230000  0.57920000  0.43650000  1.0
  C  C122  1  0.86900000  0.71590000  0.88160000  1.0
  C  C123  1  0.08770000  0.07190000  0.88270000  1.0
  C  C124  1  0.84810000  0.33350000  0.87680000  1.0
  C  C125  1  0.69760000  0.03900000  0.60410000  1.0
  C  C126  1  0.67380000  0.60000000  0.32510000  1.0
  C  C127  1  0.18200000  0.32470000  0.35500000  1.0
  C  C128  1  0.79330000  0.63080000  0.14000000  1.0
  C  C129  1  0.35650000  0.43410000  0.61740000  1.0
  C  C130  1  0.65080000  0.52690000  0.11830000  1.0
  C  C131  1  0.36210000  0.63090000  0.68120000  1.0
  C  C132  1  0.36670000  0.55550000  0.67910000  1.0
  C  C133  1  0.84920000  0.52690000  0.61830000  1.0
  C  C134  1  0.46150000  0.00540000  0.46980000  1.0
  C  C135  1  0.48700000  0.65100000  0.95320000  1.0
  C  C136  1  0.32620000  0.40000000  0.67490000  1.0
  C  C137  1  0.83530000  0.37350000  0.93910000  1.0
  C  C138  1  0.89130000  0.60810000  0.94050000  1.0
  C  C139  1  0.47770000  0.57920000  0.93650000  1.0
  C  C140  1  0.66850000  0.67320000  0.32360000  1.0
  C  C141  1  0.58770000  0.92810000  0.61730000  1.0
  C  C142  1  0.33150000  0.32680000  0.67640000  1.0
  C  C143  1  0.13100000  0.28410000  0.11840000  1.0
  C  C144  1  0.44660000  0.35440000  0.86550000  1.0
  C  C145  1  0.28140000  0.67400000  0.89680000  1.0
  C  C146  1  0.60240000  0.68220000  0.43950000  1.0
  C  C147  1  0.16470000  0.62650000  0.06090000  1.0
  C  C148  1  0.35210000  0.51530000  0.61750000  1.0
  C  C149  1  0.15080000  0.47310000  0.38170000  1.0
  C  C150  1  0.14790000  0.51530000  0.11750000  1.0
  C  C151  1  0.22340000  0.44220000  0.87350000  1.0
  C  C152  1  0.36590000  0.55260000  0.89810000  1.0
  C  C153  1  0.17750000  0.02090000  0.85780000  1.0
  C  C154  1  0.63410000  0.44740000  0.10190000  1.0
  C  C155  1  0.60870000  0.60810000  0.44050000  1.0
  C  C156  1  0.03850000  0.00540000  0.96980000  1.0
  C  C157  1  0.21860000  0.67400000  0.39680000  1.0
  C  C158  1  0.32250000  0.02090000  0.35780000  1.0
  C  C159  1  0.20670000  0.36920000  0.86000000  1.0
  C  C160  1  0.10240000  0.31780000  0.06050000  1.0
  C  C161  1  0.14350000  0.43410000  0.11740000  1.0
  C  C162  1  0.63100000  0.71590000  0.38160000  1.0
  C  C163  1  0.98700000  0.34900000  0.54680000  1.0
  C  C164  1  0.66470000  0.37350000  0.43910000  1.0
  C  C165  1  0.94660000  0.64560000  0.63450000  1.0
  C  C166  1  0.16270000  0.55200000  0.05910000  1.0
  C  C167  1  0.29330000  0.36920000  0.36000000  1.0
  C  C168  1  0.86590000  0.44740000  0.60190000  1.0
  C  C169  1  0.82250000  0.97910000  0.14220000  1.0
  C  C170  1  0.23180000  0.60200000  0.37800000  1.0
  C  C171  1  0.88970000  0.29890000  0.56450000  1.0
  C  C172  1  0.68200000  0.67530000  0.14500000  1.0
  C  C173  1  0.41230000  0.07190000  0.38270000  1.0
  C  C174  1  0.63790000  0.36910000  0.31880000  1.0
  C  C175  1  0.11030000  0.70110000  0.43550000  1.0
  C  C176  1  0.83730000  0.44800000  0.94090000  1.0
  C  C177  1  0.33730000  0.55200000  0.55910000  1.0
  C  C178  1  0.39130000  0.39190000  0.55950000  1.0
  C  C179  1  0.34810000  0.66650000  0.62320000  1.0
  C  C180  1  0.53860000  0.57230000  0.12360000  1.0
  C  C181  1  0.96140000  0.57230000  0.62360000  1.0
  C  C182  1  0.64790000  0.48470000  0.38250000  1.0
  C  C183  1  0.36900000  0.28410000  0.61840000  1.0
  C  C184  1  0.05340000  0.35440000  0.36550000  1.0
  C  C185  1  0.13410000  0.55260000  0.39810000  1.0
  C  C186  1  0.85210000  0.48470000  0.88250000  1.0
  C  C187  1  0.10870000  0.39190000  0.05950000  1.0
  C  C188  1  0.30240000  0.96100000  0.39590000  1.0
  C  C189  1  0.78140000  0.32600000  0.60320000  1.0
  C  C190  1  0.03860000  0.42770000  0.37640000  1.0
  C  C191  1  0.64350000  0.56590000  0.38260000  1.0
  C  C192  1  0.66270000  0.44800000  0.44090000  1.0
  C  C193  1  0.16850000  0.32680000  0.17640000  1.0
  C  C194  1  0.27660000  0.44220000  0.37350000  1.0
  C  C195  1  0.67750000  0.97910000  0.64220000  1.0
  C  C196  1  0.65190000  0.33350000  0.37680000  1.0
  C  C197  1  0.26820000  0.60200000  0.87800000  1.0
  C  C198  1  0.01300000  0.65100000  0.45320000  1.0
  C  C199  1  0.81800000  0.67530000  0.64500000  1.0
  C  C200  1  0.73180000  0.39800000  0.12200000  1.0
  C  C201  1  0.31800000  0.32470000  0.85500000  1.0
  C  C202  1  0.52230000  0.42080000  0.06350000  1.0
  C  C203  1  0.85650000  0.56590000  0.88260000  1.0
  C  C204  1  0.61030000  0.29890000  0.06450000  1.0
  C  C205  1  0.83150000  0.67320000  0.82360000  1.0
  C  C206  1  0.76820000  0.39800000  0.62200000  1.0
  C  C207  1  0.71860000  0.32600000  0.10320000  1.0
  C  C208  1  0.82620000  0.60000000  0.82510000  1.0
  C  C209  1  0.97770000  0.42080000  0.56350000  1.0
  C  C210  1  0.89760000  0.68220000  0.93950000  1.0
  C  C211  1  0.80240000  0.03900000  0.10410000  1.0
  C  C212  1  0.70670000  0.63080000  0.64000000  1.0
  C  C213  1  0.91230000  0.92810000  0.11730000  1.0
  C  C214  1  0.13790000  0.63090000  0.18120000  1.0
  C  C215  1  0.86670000  0.44450000  0.82090000  1.0
  N  N216  1  0.51600000  0.93570000  0.56210000  1.0
  N  N217  1  0.48400000  0.06430000  0.43790000  1.0
  N  N218  1  0.62740000  0.04630000  0.54720000  1.0
  N  N219  1  0.01600000  0.06430000  0.93790000  1.0
  N  N220  1  0.37260000  0.95370000  0.45280000  1.0
  N  N221  1  0.12740000  0.95370000  0.95280000  1.0
  N  N222  1  0.87260000  0.04630000  0.04720000  1.0
  N  N223  1  0.98400000  0.93570000  0.06210000  1.0
  O  O224  1  0.66940000  0.78880000  0.69780000  1.0
  O  O225  1  0.07590000  0.19520000  0.30990000  1.0
  O  O226  1  0.02160000  0.80010000  0.52930000  1.0
  O  O227  1  0.97840000  0.19990000  0.47070000  1.0
  O  O228  1  0.87930000  0.84690000  0.94640000  1.0
  O  O229  1  0.42410000  0.19520000  0.80990000  1.0
  O  O230  1  0.41060000  0.79370000  0.57130000  1.0
  O  O231  1  0.91060000  0.20630000  0.92870000  1.0
  O  O232  1  0.99760000  0.83200000  0.83660000  1.0
  O  O233  1  0.18050000  0.78160000  0.62590000  1.0
  O  O234  1  0.72580000  0.80330000  0.08730000  1.0
  O  O235  1  0.16940000  0.21120000  0.80220000  1.0
  O  O236  1  0.31950000  0.78160000  0.12590000  1.0
  O  O237  1  0.62070000  0.84690000  0.44640000  1.0
  O  O238  1  0.49760000  0.16800000  0.66340000  1.0
  O  O239  1  0.25230000  0.16680000  0.16260000  1.0
  O  O240  1  0.23550000  0.82490000  0.46550000  1.0
  O  O241  1  0.27420000  0.19670000  0.91270000  1.0
  O  O242  1  0.75230000  0.83320000  0.33740000  1.0
  O  O243  1  0.37930000  0.15310000  0.55360000  1.0
  O  O244  1  0.50240000  0.83200000  0.33660000  1.0
  O  O245  1  0.87390000  0.20870000  0.80140000  1.0
  O  O246  1  0.74770000  0.83320000  0.83740000  1.0
  O  O247  1  0.68050000  0.21840000  0.87410000  1.0
  O  O248  1  0.33060000  0.21120000  0.30220000  1.0
  O  O249  1  0.62610000  0.20870000  0.30140000  1.0
  O  O250  1  0.00200000  0.83140000  0.41150000  1.0
  O  O251  1  0.00240000  0.16800000  0.16340000  1.0
  O  O252  1  0.99800000  0.16860000  0.58850000  1.0
  O  O253  1  0.77420000  0.80330000  0.58730000  1.0
  O  O254  1  0.47840000  0.80010000  0.02930000  1.0
  O  O255  1  0.12070000  0.15310000  0.05360000  1.0
  O  O256  1  0.12610000  0.79130000  0.19860000  1.0
  O  O257  1  0.92410000  0.80480000  0.69010000  1.0
  O  O258  1  0.81950000  0.21840000  0.37410000  1.0
  O  O259  1  0.26450000  0.82490000  0.96550000  1.0
  O  O260  1  0.52160000  0.19990000  0.97070000  1.0
  O  O261  1  0.24770000  0.16680000  0.66260000  1.0
  O  O262  1  0.08940000  0.79370000  0.07130000  1.0
  O  O263  1  0.22580000  0.19670000  0.41270000  1.0
  O  O264  1  0.76450000  0.17510000  0.53450000  1.0
  O  O265  1  0.83060000  0.78880000  0.19780000  1.0
  O  O266  1  0.58940000  0.20630000  0.42870000  1.0
  O  O267  1  0.50200000  0.16860000  0.08850000  1.0
  O  O268  1  0.57590000  0.80480000  0.19010000  1.0
  O  O269  1  0.73550000  0.17510000  0.03450000  1.0
  O  O270  1  0.37390000  0.79130000  0.69860000  1.0
  O  O271  1  0.49800000  0.83140000  0.91150000  1.0
  F  F272  1  0.19830000  0.82220000  0.31920000  1.0
  F  F273  1  0.69830000  0.17780000  0.18080000  1.0
  F  F274  1  0.80170000  0.17780000  0.68080000  1.0
  F  F275  1  0.30170000  0.82220000  0.81920000  1.0
