# generated using pymatgen
data_Zn4H17(C12O5)3
_symmetry_space_group_name_H-M   'P 1'
_cell_length_a   10.36400000
_cell_length_b   26.74600000
_cell_length_c   27.80400000
_cell_angle_alpha   90.00000000
_cell_angle_beta   93.91000000
_cell_angle_gamma   90.00000000
_symmetry_Int_Tables_number   1
_chemical_formula_structural   Zn4H17(C12O5)3
_chemical_formula_sum   'Zn16 H68 C144 O60'
_cell_volume   7689.20569888
_cell_formula_units_Z   4
loop_
 _symmetry_equiv_pos_site_id
 _symmetry_equiv_pos_as_xyz
  1  'x, y, z'
loop_
 _atom_site_type_symbol
 _atom_site_label
 _atom_site_symmetry_multiplicity
 _atom_site_fract_x
 _atom_site_fract_y
 _atom_site_fract_z
 _atom_site_occupancy
  Zn  Zn0  1  0.12219000  0.23806000  0.18285000  1.0
  Zn  Zn1  1  0.82782000  0.23343000  0.17772000  1.0
  Zn  Zn2  1  0.95543000  0.26408000  0.08185000  1.0
  Zn  Zn3  1  0.97311000  0.33657000  0.17495000  1.0
  Zn  Zn4  1  0.37781000  0.73806000  0.31715000  1.0
  Zn  Zn5  1  0.67218000  0.73343000  0.32228000  1.0
  Zn  Zn6  1  0.54457000  0.76408000  0.41815000  1.0
  Zn  Zn7  1  0.52689000  0.83657000  0.32505000  1.0
  Zn  Zn8  1  0.87781000  0.76194000  0.81715000  1.0
  Zn  Zn9  1  0.17218000  0.76657000  0.82228000  1.0
  Zn  Zn10  1  0.04457000  0.73592000  0.91815000  1.0
  Zn  Zn11  1  0.02689000  0.66343000  0.82505000  1.0
  Zn  Zn12  1  0.62219000  0.26194000  0.68285000  1.0
  Zn  Zn13  1  0.32782000  0.26657000  0.67772000  1.0
  Zn  Zn14  1  0.45543000  0.23592000  0.58185000  1.0
  Zn  Zn15  1  0.47311000  0.16343000  0.67495000  1.0
  H  H16  1  0.93730000  0.37580000  0.97600000  1.0
  H  H17  1  0.99670000  0.46690000  0.08950000  1.0
  H  H18  1  0.03990000  0.55770000  0.07830000  1.0
  H  H19  1  0.48690000  0.30670000  0.19680000  1.0
  H  H20  1  0.67820000  0.43280000  0.23190000  1.0
  H  H21  1  0.29080000  0.42830000  0.23660000  1.0
  H  H22  1  0.66460000  0.49310000  0.28740000  1.0
  H  H23  1  0.66590000  0.57390000  0.31360000  1.0
  H  H24  1  0.30630000  0.59340000  0.25110000  1.0
  H  H25  1  0.30450000  0.51000000  0.22690000  1.0
  H  H26  1  0.45680000  0.21630000  0.11230000  1.0
  H  H27  1  0.24360000  0.22690000  0.98530000  1.0
  H  H28  1  0.63540000  0.22750000  0.98780000  1.0
  H  H29  1  0.26580000  0.26920000  0.91560000  1.0
  H  H30  1  0.25990000  0.27600000  0.83310000  1.0
  H  H31  1  0.59360000  0.20430000  0.83320000  1.0
  H  H32  1  0.59790000  0.19230000  0.91570000  1.0
  H  H33  1  0.56270000  0.87580000  0.52400000  1.0
  H  H34  1  0.50330000  0.96690000  0.41050000  1.0
  H  H35  1  0.46010000  0.05770000  0.42170000  1.0
  H  H36  1  0.01310000  0.80670000  0.30320000  1.0
  H  H37  1  0.82180000  0.93280000  0.26810000  1.0
  H  H38  1  0.20920000  0.92830000  0.26340000  1.0
  H  H39  1  0.83540000  0.99310000  0.21260000  1.0
  H  H40  1  0.83410000  0.07390000  0.18640000  1.0
  H  H41  1  0.19370000  0.09340000  0.24890000  1.0
  H  H42  1  0.19550000  0.01000000  0.27310000  1.0
  H  H43  1  0.04320000  0.71630000  0.38770000  1.0
  H  H44  1  0.25640000  0.72690000  0.51470000  1.0
  H  H45  1  0.86460000  0.72750000  0.51220000  1.0
  H  H46  1  0.23420000  0.76920000  0.58440000  1.0
  H  H47  1  0.24010000  0.77600000  0.66690000  1.0
  H  H48  1  0.90640000  0.70430000  0.66680000  1.0
  H  H49  1  0.90210000  0.69230000  0.58430000  1.0
  H  H50  1  0.06270000  0.62420000  0.02400000  1.0
  H  H51  1  0.00330000  0.53310000  0.91050000  1.0
  H  H52  1  0.96010000  0.44230000  0.92170000  1.0
  H  H53  1  0.51310000  0.69330000  0.80320000  1.0
  H  H54  1  0.32180000  0.56720000  0.76810000  1.0
  H  H55  1  0.70920000  0.57170000  0.76340000  1.0
  H  H56  1  0.33540000  0.50690000  0.71260000  1.0
  H  H57  1  0.33410000  0.42610000  0.68640000  1.0
  H  H58  1  0.69370000  0.40660000  0.74890000  1.0
  H  H59  1  0.69550000  0.49000000  0.77310000  1.0
  H  H60  1  0.54320000  0.78370000  0.88770000  1.0
  H  H61  1  0.75640000  0.77310000  0.01470000  1.0
  H  H62  1  0.36460000  0.77250000  0.01220000  1.0
  H  H63  1  0.73420000  0.73080000  0.08440000  1.0
  H  H64  1  0.74010000  0.72400000  0.16690000  1.0
  H  H65  1  0.40640000  0.79570000  0.16680000  1.0
  H  H66  1  0.40210000  0.80770000  0.08430000  1.0
  H  H67  1  0.43730000  0.12420000  0.47600000  1.0
  H  H68  1  0.49670000  0.03310000  0.58950000  1.0
  H  H69  1  0.53990000  0.94230000  0.57830000  1.0
  H  H70  1  0.98690000  0.19330000  0.69680000  1.0
  H  H71  1  0.17820000  0.06720000  0.73190000  1.0
  H  H72  1  0.79080000  0.07170000  0.73660000  1.0
  H  H73  1  0.16460000  0.00690000  0.78740000  1.0
  H  H74  1  0.16590000  0.92610000  0.81360000  1.0
  H  H75  1  0.80630000  0.90660000  0.75110000  1.0
  H  H76  1  0.80450000  0.99000000  0.72690000  1.0
  H  H77  1  0.95680000  0.28370000  0.61230000  1.0
  H  H78  1  0.74360000  0.27310000  0.48530000  1.0
  H  H79  1  0.13540000  0.27250000  0.48780000  1.0
  H  H80  1  0.76580000  0.23080000  0.41560000  1.0
  H  H81  1  0.75990000  0.22400000  0.33310000  1.0
  H  H82  1  0.09360000  0.29570000  0.33320000  1.0
  H  H83  1  0.09790000  0.30770000  0.41570000  1.0
  C  C84  1  0.96360000  0.37100000  0.07150000  1.0
  C  C85  1  0.97030000  0.41690000  0.03790000  1.0
  C  C86  1  0.95560000  0.40830000  0.98760000  1.0
  C  C87  1  0.99160000  0.46200000  0.05600000  1.0
  C  C88  1  0.00710000  0.50400000  0.02380000  1.0
  C  C89  1  0.03220000  0.55270000  0.04480000  1.0
  C  C90  1  0.24510000  0.33580000  0.20640000  1.0
  C  C91  1  0.36730000  0.36330000  0.21520000  1.0
  C  C92  1  0.48560000  0.34030000  0.20660000  1.0
  C  C93  1  0.59850000  0.36650000  0.21250000  1.0
  C  C94  1  0.59940000  0.41530000  0.22800000  1.0
  C  C95  1  0.48460000  0.43920000  0.23800000  1.0
  C  C96  1  0.36920000  0.41250000  0.23070000  1.0
  C  C97  1  0.72150000  0.34120000  0.19790000  1.0
  C  C98  1  0.48680000  0.49180000  0.25520000  1.0
  C  C99  1  0.59080000  0.51290000  0.28040000  1.0
  C  C100  1  0.59230000  0.56130000  0.29600000  1.0
  C  C101  1  0.48450000  0.59270000  0.28580000  1.0
  C  C102  1  0.37840000  0.57300000  0.25920000  1.0
  C  C103  1  0.37790000  0.52310000  0.24430000  1.0
  C  C104  1  0.48740000  0.64560000  0.30080000  1.0
  C  C105  1  0.69180000  0.22230000  0.08190000  1.0
  C  C106  1  0.56480000  0.21930000  0.05370000  1.0
  C  C107  1  0.45230000  0.21860000  0.07850000  1.0
  C  C108  1  0.33220000  0.22150000  0.05210000  1.0
  C  C109  1  0.32490000  0.22480000  0.00230000  1.0
  C  C110  1  0.43650000  0.22480000  0.97700000  1.0
  C  C111  1  0.55890000  0.22440000  0.00380000  1.0
  C  C112  1  0.21260000  0.22500000  0.07880000  1.0
  C  C113  1  0.43090000  0.22940000  0.92430000  1.0
  C  C114  1  0.33260000  0.25500000  0.89890000  1.0
  C  C115  1  0.33060000  0.26010000  0.84970000  1.0
  C  C116  1  0.42930000  0.24240000  0.82450000  1.0
  C  C117  1  0.52570000  0.21740000  0.85010000  1.0
  C  C118  1  0.52960000  0.21000000  0.89960000  1.0
  C  C119  1  0.42910000  0.24970000  0.77060000  1.0
  C  C120  1  0.53640000  0.87100000  0.42850000  1.0
  C  C121  1  0.52970000  0.91690000  0.46210000  1.0
  C  C122  1  0.54440000  0.90830000  0.51240000  1.0
  C  C123  1  0.50840000  0.96200000  0.44400000  1.0
  C  C124  1  0.49290000  0.00400000  0.47620000  1.0
  C  C125  1  0.46780000  0.05270000  0.45520000  1.0
  C  C126  1  0.25490000  0.83580000  0.29360000  1.0
  C  C127  1  0.13270000  0.86330000  0.28480000  1.0
  C  C128  1  0.01440000  0.84030000  0.29340000  1.0
  C  C129  1  0.90150000  0.86650000  0.28750000  1.0
  C  C130  1  0.90060000  0.91530000  0.27200000  1.0
  C  C131  1  0.01540000  0.93920000  0.26200000  1.0
  C  C132  1  0.13080000  0.91250000  0.26930000  1.0
  C  C133  1  0.77850000  0.84120000  0.30210000  1.0
  C  C134  1  0.01320000  0.99180000  0.24480000  1.0
  C  C135  1  0.90920000  0.01290000  0.21960000  1.0
  C  C136  1  0.90770000  0.06130000  0.20400000  1.0
  C  C137  1  0.01550000  0.09270000  0.21420000  1.0
  C  C138  1  0.12160000  0.07300000  0.24080000  1.0
  C  C139  1  0.12210000  0.02310000  0.25570000  1.0
  C  C140  1  0.01260000  0.14560000  0.19920000  1.0
  C  C141  1  0.80820000  0.72230000  0.41810000  1.0
  C  C142  1  0.93520000  0.71930000  0.44630000  1.0
  C  C143  1  0.04770000  0.71860000  0.42150000  1.0
  C  C144  1  0.16780000  0.72150000  0.44790000  1.0
  C  C145  1  0.17510000  0.72480000  0.49770000  1.0
  C  C146  1  0.06350000  0.72480000  0.52300000  1.0
  C  C147  1  0.94110000  0.72440000  0.49620000  1.0
  C  C148  1  0.28740000  0.72500000  0.42120000  1.0
  C  C149  1  0.06910000  0.72940000  0.57570000  1.0
  C  C150  1  0.16740000  0.75500000  0.60110000  1.0
  C  C151  1  0.16940000  0.76010000  0.65030000  1.0
  C  C152  1  0.07070000  0.74240000  0.67550000  1.0
  C  C153  1  0.97430000  0.71740000  0.64990000  1.0
  C  C154  1  0.97040000  0.71000000  0.60040000  1.0
  C  C155  1  0.07090000  0.74970000  0.72940000  1.0
  C  C156  1  0.03640000  0.62900000  0.92850000  1.0
  C  C157  1  0.02970000  0.58310000  0.96210000  1.0
  C  C158  1  0.04440000  0.59170000  0.01240000  1.0
  C  C159  1  0.00840000  0.53800000  0.94400000  1.0
  C  C160  1  0.99290000  0.49600000  0.97620000  1.0
  C  C161  1  0.96780000  0.44730000  0.95520000  1.0
  C  C162  1  0.75490000  0.66420000  0.79360000  1.0
  C  C163  1  0.63270000  0.63670000  0.78480000  1.0
  C  C164  1  0.51440000  0.65970000  0.79340000  1.0
  C  C165  1  0.40150000  0.63350000  0.78750000  1.0
  C  C166  1  0.40060000  0.58470000  0.77200000  1.0
  C  C167  1  0.51540000  0.56080000  0.76200000  1.0
  C  C168  1  0.63080000  0.58750000  0.76930000  1.0
  C  C169  1  0.27850000  0.65880000  0.80210000  1.0
  C  C170  1  0.51320000  0.50820000  0.74480000  1.0
  C  C171  1  0.40920000  0.48710000  0.71960000  1.0
  C  C172  1  0.40770000  0.43870000  0.70400000  1.0
  C  C173  1  0.51550000  0.40730000  0.71420000  1.0
  C  C174  1  0.62160000  0.42700000  0.74080000  1.0
  C  C175  1  0.62210000  0.47690000  0.75570000  1.0
  C  C176  1  0.51260000  0.35440000  0.69920000  1.0
  C  C177  1  0.30820000  0.77770000  0.91810000  1.0
  C  C178  1  0.43520000  0.78070000  0.94630000  1.0
  C  C179  1  0.54770000  0.78140000  0.92150000  1.0
  C  C180  1  0.66780000  0.77850000  0.94790000  1.0
  C  C181  1  0.67510000  0.77520000  0.99770000  1.0
  C  C182  1  0.56350000  0.77520000  0.02300000  1.0
  C  C183  1  0.44110000  0.77560000  0.99620000  1.0
  C  C184  1  0.78740000  0.77500000  0.92120000  1.0
  C  C185  1  0.56910000  0.77060000  0.07570000  1.0
  C  C186  1  0.66740000  0.74500000  0.10110000  1.0
  C  C187  1  0.66940000  0.73990000  0.15030000  1.0
  C  C188  1  0.57070000  0.75760000  0.17550000  1.0
  C  C189  1  0.47430000  0.78260000  0.14990000  1.0
  C  C190  1  0.47040000  0.79000000  0.10040000  1.0
  C  C191  1  0.57090000  0.75030000  0.22940000  1.0
  C  C192  1  0.46360000  0.12900000  0.57150000  1.0
  C  C193  1  0.47030000  0.08310000  0.53790000  1.0
  C  C194  1  0.45560000  0.09170000  0.48760000  1.0
  C  C195  1  0.49160000  0.03800000  0.55600000  1.0
  C  C196  1  0.50710000  0.99600000  0.52380000  1.0
  C  C197  1  0.53220000  0.94730000  0.54480000  1.0
  C  C198  1  0.74510000  0.16420000  0.70640000  1.0
  C  C199  1  0.86730000  0.13670000  0.71520000  1.0
  C  C200  1  0.98560000  0.15970000  0.70660000  1.0
  C  C201  1  0.09850000  0.13350000  0.71250000  1.0
  C  C202  1  0.09940000  0.08470000  0.72800000  1.0
  C  C203  1  0.98460000  0.06080000  0.73800000  1.0
  C  C204  1  0.86920000  0.08750000  0.73070000  1.0
  C  C205  1  0.22150000  0.15880000  0.69790000  1.0
  C  C206  1  0.98680000  0.00820000  0.75520000  1.0
  C  C207  1  0.09080000  0.98710000  0.78040000  1.0
  C  C208  1  0.09230000  0.93870000  0.79600000  1.0
  C  C209  1  0.98450000  0.90730000  0.78580000  1.0
  C  C210  1  0.87840000  0.92700000  0.75920000  1.0
  C  C211  1  0.87790000  0.97690000  0.74430000  1.0
  C  C212  1  0.98740000  0.85440000  0.80080000  1.0
  C  C213  1  0.19180000  0.27770000  0.58190000  1.0
  C  C214  1  0.06480000  0.28070000  0.55370000  1.0
  C  C215  1  0.95230000  0.28140000  0.57850000  1.0
  C  C216  1  0.83220000  0.27850000  0.55210000  1.0
  C  C217  1  0.82490000  0.27520000  0.50230000  1.0
  C  C218  1  0.93650000  0.27520000  0.47700000  1.0
  C  C219  1  0.05890000  0.27560000  0.50380000  1.0
  C  C220  1  0.71260000  0.27500000  0.57880000  1.0
  C  C221  1  0.93090000  0.27060000  0.42430000  1.0
  C  C222  1  0.83260000  0.24500000  0.39890000  1.0
  C  C223  1  0.83060000  0.23990000  0.34970000  1.0
  C  C224  1  0.92930000  0.25760000  0.32450000  1.0
  C  C225  1  0.02570000  0.28260000  0.35010000  1.0
  C  C226  1  0.02960000  0.29000000  0.39960000  1.0
  C  C227  1  0.92910000  0.25030000  0.27060000  1.0
  O  O228  1  0.97050000  0.26971000  0.15053000  1.0
  O  O229  1  0.94760000  0.32970000  0.05093000  1.0
  O  O230  1  0.96900000  0.38010000  0.11510000  1.0
  O  O231  1  0.25620000  0.28814000  0.20118000  1.0
  O  O232  1  0.14190000  0.36016000  0.20333000  1.0
  O  O233  1  0.71140000  0.29980000  0.17835000  1.0
  O  O234  1  0.82770000  0.36491000  0.20625000  1.0
  O  O235  1  0.58740000  0.66140000  0.32335000  1.0
  O  O236  1  0.38520000  0.67106000  0.29198000  1.0
  O  O237  1  0.69550000  0.21220000  0.12588000  1.0
  O  O238  1  0.79060000  0.23381000  0.05919000  1.0
  O  O239  1  0.22170000  0.21736000  0.12337000  1.0
  O  O240  1  0.10680000  0.23408000  0.05397000  1.0
  O  O241  1  0.33000000  0.26740000  0.74823000  1.0
  O  O242  1  0.52300000  0.23270000  0.75110000  1.0
  O  O243  1  0.52950000  0.76971000  0.34947000  1.0
  O  O244  1  0.55240000  0.82970000  0.44907000  1.0
  O  O245  1  0.53100000  0.88010000  0.38490000  1.0
  O  O246  1  0.24380000  0.78814000  0.29882000  1.0
  O  O247  1  0.35810000  0.86016000  0.29667000  1.0
  O  O248  1  0.78860000  0.79980000  0.32165000  1.0
  O  O249  1  0.67230000  0.86491000  0.29375000  1.0
  O  O250  1  0.91260000  0.16140000  0.17665000  1.0
  O  O251  1  0.11480000  0.17106000  0.20802000  1.0
  O  O252  1  0.80450000  0.71220000  0.37412000  1.0
  O  O253  1  0.70940000  0.73381000  0.44081000  1.0
  O  O254  1  0.27830000  0.71736000  0.37663000  1.0
  O  O255  1  0.39320000  0.73408000  0.44603000  1.0
  O  O256  1  0.17000000  0.76740000  0.75177000  1.0
  O  O257  1  0.97700000  0.73270000  0.74890000  1.0
  O  O258  1  0.02950000  0.73029000  0.84947000  1.0
  O  O259  1  0.05240000  0.67030000  0.94907000  1.0
  O  O260  1  0.03100000  0.61990000  0.88490000  1.0
  O  O261  1  0.74380000  0.71186000  0.79882000  1.0
  O  O262  1  0.85810000  0.63984000  0.79667000  1.0
  O  O263  1  0.28860000  0.70020000  0.82165000  1.0
  O  O264  1  0.17230000  0.63509000  0.79375000  1.0
  O  O265  1  0.41260000  0.33860000  0.67665000  1.0
  O  O266  1  0.61480000  0.32894000  0.70802000  1.0
  O  O267  1  0.30450000  0.78780000  0.87412000  1.0
  O  O268  1  0.20940000  0.76619000  0.94081000  1.0
  O  O269  1  0.77830000  0.78264000  0.87663000  1.0
  O  O270  1  0.89320000  0.76592000  0.94603000  1.0
  O  O271  1  0.67000000  0.73260000  0.25177000  1.0
  O  O272  1  0.47700000  0.76730000  0.24890000  1.0
  O  O273  1  0.47050000  0.23029000  0.65053000  1.0
  O  O274  1  0.44760000  0.17030000  0.55093000  1.0
  O  O275  1  0.46900000  0.11990000  0.61510000  1.0
  O  O276  1  0.75620000  0.21186000  0.70118000  1.0
  O  O277  1  0.64190000  0.13984000  0.70333000  1.0
  O  O278  1  0.21140000  0.20020000  0.67835000  1.0
  O  O279  1  0.32770000  0.13509000  0.70625000  1.0
  O  O280  1  0.08740000  0.83860000  0.82335000  1.0
  O  O281  1  0.88520000  0.82894000  0.79198000  1.0
  O  O282  1  0.19550000  0.28780000  0.62588000  1.0
  O  O283  1  0.29060000  0.26619000  0.55919000  1.0
  O  O284  1  0.72170000  0.28264000  0.62337000  1.0
  O  O285  1  0.60680000  0.26592000  0.55397000  1.0
  O  O286  1  0.83000000  0.23260000  0.24823000  1.0
  O  O287  1  0.02300000  0.26730000  0.25110000  1.0
