# generated using pymatgen
data_AgH12(C3N)6
_symmetry_space_group_name_H-M   'P 1'
_cell_length_a   22.03660000
_cell_length_b   16.45320000
_cell_length_c   25.68050000
_cell_angle_alpha   90.00000000
_cell_angle_beta   115.39700000
_cell_angle_gamma   90.00000000
_symmetry_Int_Tables_number   1
_chemical_formula_structural   AgH12(C3N)6
_chemical_formula_sum   'Ag16 H192 C288 N96'
_cell_volume   8411.20495935
_cell_formula_units_Z   16
loop_
 _symmetry_equiv_pos_site_id
 _symmetry_equiv_pos_as_xyz
  1  'x, y, z'
loop_
 _atom_site_type_symbol
 _atom_site_label
 _atom_site_symmetry_multiplicity
 _atom_site_fract_x
 _atom_site_fract_y
 _atom_site_fract_z
 _atom_site_occupancy
  Ag  Ag0  1  0.27404000  0.70856000  0.86820000  1.0
  Ag  Ag1  1  0.79465000  0.00021000  0.36768000  1.0
  Ag  Ag2  1  0.77404000  0.20856000  0.86820000  1.0
  Ag  Ag3  1  0.29465000  0.50021000  0.36768000  1.0
  Ag  Ag4  1  0.72596000  0.70856000  0.63180000  1.0
  Ag  Ag5  1  0.20535000  0.00021000  0.13232000  1.0
  Ag  Ag6  1  0.22596000  0.20856000  0.63180000  1.0
  Ag  Ag7  1  0.70535000  0.50021000  0.13232000  1.0
  Ag  Ag8  1  0.72596000  0.29144000  0.13180000  1.0
  Ag  Ag9  1  0.20535000  0.99979000  0.63232000  1.0
  Ag  Ag10  1  0.22596000  0.79144000  0.13180000  1.0
  Ag  Ag11  1  0.70535000  0.49979000  0.63232000  1.0
  Ag  Ag12  1  0.27404000  0.29144000  0.36820000  1.0
  Ag  Ag13  1  0.79465000  0.99979000  0.86768000  1.0
  Ag  Ag14  1  0.77404000  0.79144000  0.36820000  1.0
  Ag  Ag15  1  0.29465000  0.49979000  0.86768000  1.0
  H  H16  1  0.58580000  0.04040000  0.89060000  1.0
  H  H17  1  0.40330000  0.40430000  0.35290000  1.0
  H  H18  1  0.50060000  0.38360000  0.54950000  1.0
  H  H19  1  0.38500000  0.81080000  0.84900000  1.0
  H  H20  1  0.76470000  0.13280000  0.53680000  1.0
  H  H21  1  0.74550000  0.08210000  0.04000000  1.0
  H  H22  1  0.81250000  0.06520000  0.48580000  1.0
  H  H23  1  0.48180000  0.88350000  0.89440000  1.0
  H  H24  1  0.82210000  0.17460000  0.75990000  1.0
  H  H25  1  0.79510000  0.14940000  0.98990000  1.0
  H  H26  1  0.63870000  0.11270000  0.84500000  1.0
  H  H27  1  0.72800000  0.06980000  0.15690000  1.0
  H  H28  1  0.50210000  0.33510000  0.39700000  1.0
  H  H29  1  0.47440000  0.83790000  0.04540000  1.0
  H  H30  1  0.77750000  0.18960000  0.66170000  1.0
  H  H31  1  0.66390000  0.27420000  0.76430000  1.0
  H  H32  1  0.61410000  0.29230000  0.66570000  1.0
  H  H33  1  0.77830000  0.07890000  0.25530000  1.0
  H  H34  1  0.37760000  0.76690000  0.99520000  1.0
  H  H35  1  0.61630000  0.20360000  0.38730000  1.0
  H  H36  1  0.59570000  0.91230000  0.16890000  1.0
  H  H37  1  0.65140000  0.92390000  0.26730000  1.0
  H  H38  1  0.40170000  0.45320000  0.50090000  1.0
  H  H39  1  0.66650000  0.13030000  0.33990000  1.0
  H  H40  1  0.08580000  0.54040000  0.89060000  1.0
  H  H41  1  0.90330000  0.90430000  0.35290000  1.0
  H  H42  1  0.00060000  0.88360000  0.54950000  1.0
  H  H43  1  0.88500000  0.31080000  0.84900000  1.0
  H  H44  1  0.26470000  0.63280000  0.53680000  1.0
  H  H45  1  0.24550000  0.58210000  0.04000000  1.0
  H  H46  1  0.31250000  0.56520000  0.48580000  1.0
  H  H47  1  0.98180000  0.38350000  0.89440000  1.0
  H  H48  1  0.32210000  0.67460000  0.75990000  1.0
  H  H49  1  0.29510000  0.64940000  0.98990000  1.0
  H  H50  1  0.13870000  0.61270000  0.84500000  1.0
  H  H51  1  0.22800000  0.56980000  0.15690000  1.0
  H  H52  1  0.00210000  0.83510000  0.39700000  1.0
  H  H53  1  0.97440000  0.33790000  0.04540000  1.0
  H  H54  1  0.27750000  0.68960000  0.66170000  1.0
  H  H55  1  0.16390000  0.77420000  0.76430000  1.0
  H  H56  1  0.11410000  0.79230000  0.66570000  1.0
  H  H57  1  0.27830000  0.57890000  0.25530000  1.0
  H  H58  1  0.87760000  0.26690000  0.99520000  1.0
  H  H59  1  0.11630000  0.70360000  0.38730000  1.0
  H  H60  1  0.09570000  0.41230000  0.16890000  1.0
  H  H61  1  0.15140000  0.42390000  0.26730000  1.0
  H  H62  1  0.90170000  0.95320000  0.50090000  1.0
  H  H63  1  0.16650000  0.63030000  0.33990000  1.0
  H  H64  1  0.41420000  0.04040000  0.60940000  1.0
  H  H65  1  0.59670000  0.40430000  0.14710000  1.0
  H  H66  1  0.49940000  0.38360000  0.95050000  1.0
  H  H67  1  0.61500000  0.81080000  0.65100000  1.0
  H  H68  1  0.23530000  0.13280000  0.96320000  1.0
  H  H69  1  0.25450000  0.08210000  0.46000000  1.0
  H  H70  1  0.18750000  0.06520000  0.01420000  1.0
  H  H71  1  0.51820000  0.88350000  0.60560000  1.0
  H  H72  1  0.17790000  0.17460000  0.74010000  1.0
  H  H73  1  0.20490000  0.14940000  0.51010000  1.0
  H  H74  1  0.36130000  0.11270000  0.65500000  1.0
  H  H75  1  0.27200000  0.06980000  0.34310000  1.0
  H  H76  1  0.49790000  0.33510000  0.10300000  1.0
  H  H77  1  0.52560000  0.83790000  0.45460000  1.0
  H  H78  1  0.22250000  0.18960000  0.83830000  1.0
  H  H79  1  0.33610000  0.27420000  0.73570000  1.0
  H  H80  1  0.38590000  0.29230000  0.83430000  1.0
  H  H81  1  0.22170000  0.07890000  0.24470000  1.0
  H  H82  1  0.62240000  0.76690000  0.50480000  1.0
  H  H83  1  0.38370000  0.20360000  0.11270000  1.0
  H  H84  1  0.40430000  0.91230000  0.33110000  1.0
  H  H85  1  0.34860000  0.92390000  0.23270000  1.0
  H  H86  1  0.59830000  0.45320000  0.99910000  1.0
  H  H87  1  0.33350000  0.13030000  0.16010000  1.0
  H  H88  1  0.91420000  0.54040000  0.60940000  1.0
  H  H89  1  0.09670000  0.90430000  0.14710000  1.0
  H  H90  1  0.99940000  0.88360000  0.95050000  1.0
  H  H91  1  0.11500000  0.31080000  0.65100000  1.0
  H  H92  1  0.73530000  0.63280000  0.96320000  1.0
  H  H93  1  0.75450000  0.58210000  0.46000000  1.0
  H  H94  1  0.68750000  0.56520000  0.01420000  1.0
  H  H95  1  0.01820000  0.38350000  0.60560000  1.0
  H  H96  1  0.67790000  0.67460000  0.74010000  1.0
  H  H97  1  0.70490000  0.64940000  0.51010000  1.0
  H  H98  1  0.86130000  0.61270000  0.65500000  1.0
  H  H99  1  0.77200000  0.56980000  0.34310000  1.0
  H  H100  1  0.99790000  0.83510000  0.10300000  1.0
  H  H101  1  0.02560000  0.33790000  0.45460000  1.0
  H  H102  1  0.72250000  0.68960000  0.83830000  1.0
  H  H103  1  0.83610000  0.77420000  0.73570000  1.0
  H  H104  1  0.88590000  0.79230000  0.83430000  1.0
  H  H105  1  0.72170000  0.57890000  0.24470000  1.0
  H  H106  1  0.12240000  0.26690000  0.50480000  1.0
  H  H107  1  0.88370000  0.70360000  0.11270000  1.0
  H  H108  1  0.90430000  0.41230000  0.33110000  1.0
  H  H109  1  0.84860000  0.42390000  0.23270000  1.0
  H  H110  1  0.09830000  0.95320000  0.99910000  1.0
  H  H111  1  0.83350000  0.63030000  0.16010000  1.0
  H  H112  1  0.41420000  0.95960000  0.10940000  1.0
  H  H113  1  0.59670000  0.59570000  0.64710000  1.0
  H  H114  1  0.49940000  0.61640000  0.45050000  1.0
  H  H115  1  0.61500000  0.18920000  0.15100000  1.0
  H  H116  1  0.23530000  0.86720000  0.46320000  1.0
  H  H117  1  0.25450000  0.91790000  0.96000000  1.0
  H  H118  1  0.18750000  0.93480000  0.51420000  1.0
  H  H119  1  0.51820000  0.11650000  0.10560000  1.0
  H  H120  1  0.17790000  0.82540000  0.24010000  1.0
  H  H121  1  0.20490000  0.85060000  0.01010000  1.0
  H  H122  1  0.36130000  0.88730000  0.15500000  1.0
  H  H123  1  0.27200000  0.93020000  0.84310000  1.0
  H  H124  1  0.49790000  0.66490000  0.60300000  1.0
  H  H125  1  0.52560000  0.16210000  0.95460000  1.0
  H  H126  1  0.22250000  0.81040000  0.33830000  1.0
  H  H127  1  0.33610000  0.72580000  0.23570000  1.0
  H  H128  1  0.38590000  0.70770000  0.33430000  1.0
  H  H129  1  0.22170000  0.92110000  0.74470000  1.0
  H  H130  1  0.62240000  0.23310000  0.00480000  1.0
  H  H131  1  0.38370000  0.79640000  0.61270000  1.0
  H  H132  1  0.40430000  0.08770000  0.83110000  1.0
  H  H133  1  0.34860000  0.07610000  0.73270000  1.0
  H  H134  1  0.59830000  0.54680000  0.49910000  1.0
  H  H135  1  0.33350000  0.86970000  0.66010000  1.0
  H  H136  1  0.91420000  0.45960000  0.10940000  1.0
  H  H137  1  0.09670000  0.09570000  0.64710000  1.0
  H  H138  1  0.99940000  0.11640000  0.45050000  1.0
  H  H139  1  0.11500000  0.68920000  0.15100000  1.0
  H  H140  1  0.73530000  0.36720000  0.46320000  1.0
  H  H141  1  0.75450000  0.41790000  0.96000000  1.0
  H  H142  1  0.68750000  0.43480000  0.51420000  1.0
  H  H143  1  0.01820000  0.61650000  0.10560000  1.0
  H  H144  1  0.67790000  0.32540000  0.24010000  1.0
  H  H145  1  0.70490000  0.35060000  0.01010000  1.0
  H  H146  1  0.86130000  0.38730000  0.15500000  1.0
  H  H147  1  0.77200000  0.43020000  0.84310000  1.0
  H  H148  1  0.99790000  0.16490000  0.60300000  1.0
  H  H149  1  0.02560000  0.66210000  0.95460000  1.0
  H  H150  1  0.72250000  0.31040000  0.33830000  1.0
  H  H151  1  0.83610000  0.22580000  0.23570000  1.0
  H  H152  1  0.88590000  0.20770000  0.33430000  1.0
  H  H153  1  0.72170000  0.42110000  0.74470000  1.0
  H  H154  1  0.12240000  0.73310000  0.00480000  1.0
  H  H155  1  0.88370000  0.29640000  0.61270000  1.0
  H  H156  1  0.90430000  0.58770000  0.83110000  1.0
  H  H157  1  0.84860000  0.57610000  0.73270000  1.0
  H  H158  1  0.09830000  0.04680000  0.49910000  1.0
  H  H159  1  0.83350000  0.36970000  0.66010000  1.0
  H  H160  1  0.58580000  0.95960000  0.39060000  1.0
  H  H161  1  0.40330000  0.59570000  0.85290000  1.0
  H  H162  1  0.50060000  0.61640000  0.04950000  1.0
  H  H163  1  0.38500000  0.18920000  0.34900000  1.0
  H  H164  1  0.76470000  0.86720000  0.03680000  1.0
  H  H165  1  0.74550000  0.91790000  0.54000000  1.0
  H  H166  1  0.81250000  0.93480000  0.98580000  1.0
  H  H167  1  0.48180000  0.11650000  0.39440000  1.0
  H  H168  1  0.82210000  0.82540000  0.25990000  1.0
  H  H169  1  0.79510000  0.85060000  0.48990000  1.0
  H  H170  1  0.63870000  0.88730000  0.34500000  1.0
  H  H171  1  0.72800000  0.93020000  0.65690000  1.0
  H  H172  1  0.50210000  0.66490000  0.89700000  1.0
  H  H173  1  0.47440000  0.16210000  0.54540000  1.0
  H  H174  1  0.77750000  0.81040000  0.16170000  1.0
  H  H175  1  0.66390000  0.72580000  0.26430000  1.0
  H  H176  1  0.61410000  0.70770000  0.16570000  1.0
  H  H177  1  0.77830000  0.92110000  0.75530000  1.0
  H  H178  1  0.37760000  0.23310000  0.49520000  1.0
  H  H179  1  0.61630000  0.79640000  0.88730000  1.0
  H  H180  1  0.59570000  0.08770000  0.66890000  1.0
  H  H181  1  0.65140000  0.07610000  0.76730000  1.0
  H  H182  1  0.40170000  0.54680000  0.00090000  1.0
  H  H183  1  0.66650000  0.86970000  0.83990000  1.0
  H  H184  1  0.08580000  0.45960000  0.39060000  1.0
  H  H185  1  0.90330000  0.09570000  0.85290000  1.0
  H  H186  1  0.00060000  0.11640000  0.04950000  1.0
  H  H187  1  0.88500000  0.68920000  0.34900000  1.0
  H  H188  1  0.26470000  0.36720000  0.03680000  1.0
  H  H189  1  0.24550000  0.41790000  0.54000000  1.0
  H  H190  1  0.31250000  0.43480000  0.98580000  1.0
  H  H191  1  0.98180000  0.61650000  0.39440000  1.0
  H  H192  1  0.32210000  0.32540000  0.25990000  1.0
  H  H193  1  0.29510000  0.35060000  0.48990000  1.0
  H  H194  1  0.13870000  0.38730000  0.34500000  1.0
  H  H195  1  0.22800000  0.43020000  0.65690000  1.0
  H  H196  1  0.00210000  0.16490000  0.89700000  1.0
  H  H197  1  0.97440000  0.66210000  0.54540000  1.0
  H  H198  1  0.27750000  0.31040000  0.16170000  1.0
  H  H199  1  0.16390000  0.22580000  0.26430000  1.0
  H  H200  1  0.11410000  0.20770000  0.16570000  1.0
  H  H201  1  0.27830000  0.42110000  0.75530000  1.0
  H  H202  1  0.87760000  0.73310000  0.49520000  1.0
  H  H203  1  0.11630000  0.29640000  0.88730000  1.0
  H  H204  1  0.09570000  0.58770000  0.66890000  1.0
  H  H205  1  0.15140000  0.57610000  0.76730000  1.0
  H  H206  1  0.90170000  0.04680000  0.00090000  1.0
  H  H207  1  0.16650000  0.36970000  0.83990000  1.0
  C  C208  1  0.62836000  0.06210000  0.91179000  1.0
  C  C209  1  0.42295000  0.40000000  0.39285000  1.0
  C  C210  1  0.62842000  0.00750000  0.00282000  1.0
  C  C211  1  0.65412000  0.21900000  0.50174000  1.0
  C  C212  1  0.48163000  0.38690000  0.50950000  1.0
  C  C213  1  0.40311000  0.81660000  0.88888000  1.0
  C  C214  1  0.74388000  0.13310000  0.49673000  1.0
  C  C215  1  0.72318000  0.08640000  0.00014000  1.0
  C  C216  1  0.57523000  0.30090000  0.50731000  1.0
  C  C217  1  0.66041000  0.05250000  0.97072000  1.0
  C  C218  1  0.62810000  0.97640000  0.08825000  1.0
  C  C219  1  0.77212000  0.09250000  0.46566000  1.0
  C  C220  1  0.46113000  0.86090000  0.91585000  1.0
  C  C221  1  0.78000000  0.19830000  0.74082000  1.0
  C  C222  1  0.65853000  0.98690000  0.15185000  1.0
  C  C223  1  0.69090000  0.24270000  0.65244000  1.0
  C  C224  1  0.75254000  0.12710000  0.96965000  1.0
  C  C225  1  0.55014000  0.92260000  0.00605000  1.0
  C  C226  1  0.66106000  0.10510000  0.88467000  1.0
  C  C227  1  0.71218000  0.03860000  0.17865000  1.0
  C  C228  1  0.48236000  0.35800000  0.41910000  1.0
  C  C229  1  0.68425000  0.17440000  0.46749000  1.0
  C  C230  1  0.45688000  0.83410000  0.00548000  1.0
  C  C231  1  0.75343000  0.20730000  0.68173000  1.0
  C  C232  1  0.68690000  0.25690000  0.74328000  1.0
  C  C233  1  0.65630000  0.26830000  0.68386000  1.0
  C  C234  1  0.51278000  0.35000000  0.47833000  1.0
  C  C235  1  0.65893000  0.25250000  0.58855000  1.0
  C  C236  1  0.74210000  0.04380000  0.23781000  1.0
  C  C237  1  0.39894000  0.79090000  0.97480000  1.0
  C  C238  1  0.65563000  0.17470000  0.40809000  1.0
  C  C239  1  0.63376000  0.94490000  0.18561000  1.0
  C  C240  1  0.66740000  0.95310000  0.24475000  1.0
  C  C241  1  0.42193000  0.42860000  0.47980000  1.0
  C  C242  1  0.48905000  0.87220000  0.97533000  1.0
  C  C243  1  0.68672000  0.13120000  0.38001000  1.0
  C  C244  1  0.12836000  0.56210000  0.91179000  1.0
  C  C245  1  0.92295000  0.90000000  0.39285000  1.0
  C  C246  1  0.12842000  0.50750000  0.00282000  1.0
  C  C247  1  0.15412000  0.71900000  0.50174000  1.0
  C  C248  1  0.98163000  0.88690000  0.50950000  1.0
  C  C249  1  0.90311000  0.31660000  0.88888000  1.0
  C  C250  1  0.24388000  0.63310000  0.49673000  1.0
  C  C251  1  0.22318000  0.58640000  0.00014000  1.0
  C  C252  1  0.07523000  0.80090000  0.50731000  1.0
  C  C253  1  0.16041000  0.55250000  0.97072000  1.0
  C  C254  1  0.12810000  0.47640000  0.08825000  1.0
  C  C255  1  0.27212000  0.59250000  0.46566000  1.0
  C  C256  1  0.96113000  0.36090000  0.91585000  1.0
  C  C257  1  0.28000000  0.69830000  0.74082000  1.0
  C  C258  1  0.15853000  0.48690000  0.15185000  1.0
  C  C259  1  0.19090000  0.74270000  0.65244000  1.0
  C  C260  1  0.25254000  0.62710000  0.96965000  1.0
  C  C261  1  0.05014000  0.42260000  0.00605000  1.0
  C  C262  1  0.16106000  0.60510000  0.88467000  1.0
  C  C263  1  0.21218000  0.53860000  0.17865000  1.0
  C  C264  1  0.98236000  0.85800000  0.41910000  1.0
  C  C265  1  0.18425000  0.67440000  0.46749000  1.0
  C  C266  1  0.95688000  0.33410000  0.00548000  1.0
  C  C267  1  0.25343000  0.70730000  0.68173000  1.0
  C  C268  1  0.18690000  0.75690000  0.74328000  1.0
  C  C269  1  0.15630000  0.76830000  0.68386000  1.0
  C  C270  1  0.01278000  0.85000000  0.47833000  1.0
  C  C271  1  0.15893000  0.75250000  0.58855000  1.0
  C  C272  1  0.24210000  0.54380000  0.23781000  1.0
  C  C273  1  0.89894000  0.29090000  0.97480000  1.0
  C  C274  1  0.15563000  0.67470000  0.40809000  1.0
  C  C275  1  0.13376000  0.44490000  0.18561000  1.0
  C  C276  1  0.16740000  0.45310000  0.24475000  1.0
  C  C277  1  0.92193000  0.92860000  0.47980000  1.0
  C  C278  1  0.98905000  0.37220000  0.97533000  1.0
  C  C279  1  0.18672000  0.63120000  0.38001000  1.0
  C  C280  1  0.37164000  0.06210000  0.58821000  1.0
  C  C281  1  0.57705000  0.40000000  0.10715000  1.0
  C  C282  1  0.37158000  0.00750000  0.49718000  1.0
  C  C283  1  0.34588000  0.21900000  0.99826000  1.0
  C  C284  1  0.51837000  0.38690000  0.99050000  1.0
  C  C285  1  0.59689000  0.81660000  0.61112000  1.0
  C  C286  1  0.25612000  0.13310000  0.00327000  1.0
  C  C287  1  0.27682000  0.08640000  0.49986000  1.0
  C  C288  1  0.42477000  0.30090000  0.99269000  1.0
  C  C289  1  0.33959000  0.05250000  0.52928000  1.0
  C  C290  1  0.37190000  0.97640000  0.41175000  1.0
  C  C291  1  0.22788000  0.09250000  0.03434000  1.0
  C  C292  1  0.53887000  0.86090000  0.58415000  1.0
  C  C293  1  0.22000000  0.19830000  0.75918000  1.0
  C  C294  1  0.34147000  0.98690000  0.34815000  1.0
  C  C295  1  0.30910000  0.24270000  0.84756000  1.0
  C  C296  1  0.24746000  0.12710000  0.53035000  1.0
  C  C297  1  0.44986000  0.92260000  0.49395000  1.0
  C  C298  1  0.33894000  0.10510000  0.61533000  1.0
  C  C299  1  0.28782000  0.03860000  0.32135000  1.0
  C  C300  1  0.51764000  0.35800000  0.08090000  1.0
  C  C301  1  0.31575000  0.17440000  0.03251000  1.0
  C  C302  1  0.54312000  0.83410000  0.49452000  1.0
  C  C303  1  0.24657000  0.20730000  0.81827000  1.0
  C  C304  1  0.31310000  0.25690000  0.75672000  1.0
  C  C305  1  0.34370000  0.26830000  0.81614000  1.0
  C  C306  1  0.48722000  0.35000000  0.02167000  1.0
  C  C307  1  0.34107000  0.25250000  0.91145000  1.0
  C  C308  1  0.25790000  0.04380000  0.26219000  1.0
  C  C309  1  0.60106000  0.79090000  0.52520000  1.0
  C  C310  1  0.34437000  0.17470000  0.09191000  1.0
  C  C311  1  0.36624000  0.94490000  0.31439000  1.0
  C  C312  1  0.33260000  0.95310000  0.25525000  1.0
  C  C313  1  0.57807000  0.42860000  0.02020000  1.0
  C  C314  1  0.51095000  0.87220000  0.52467000  1.0
  C  C315  1  0.31328000  0.13120000  0.11999000  1.0
  C  C316  1  0.87164000  0.56210000  0.58821000  1.0
  C  C317  1  0.07705000  0.90000000  0.10715000  1.0
  C  C318  1  0.87158000  0.50750000  0.49718000  1.0
  C  C319  1  0.84588000  0.71900000  0.99826000  1.0
  C  C320  1  0.01837000  0.88690000  0.99050000  1.0
  C  C321  1  0.09689000  0.31660000  0.61112000  1.0
  C  C322  1  0.75612000  0.63310000  0.00327000  1.0
  C  C323  1  0.77682000  0.58640000  0.49986000  1.0
  C  C324  1  0.92477000  0.80090000  0.99269000  1.0
  C  C325  1  0.83959000  0.55250000  0.52928000  1.0
  C  C326  1  0.87190000  0.47640000  0.41175000  1.0
  C  C327  1  0.72788000  0.59250000  0.03434000  1.0
  C  C328  1  0.03887000  0.36090000  0.58415000  1.0
  C  C329  1  0.72000000  0.69830000  0.75918000  1.0
  C  C330  1  0.84147000  0.48690000  0.34815000  1.0
  C  C331  1  0.80910000  0.74270000  0.84756000  1.0
  C  C332  1  0.74746000  0.62710000  0.53035000  1.0
  C  C333  1  0.94986000  0.42260000  0.49395000  1.0
  C  C334  1  0.83894000  0.60510000  0.61533000  1.0
  C  C335  1  0.78782000  0.53860000  0.32135000  1.0
  C  C336  1  0.01764000  0.85800000  0.08090000  1.0
  C  C337  1  0.81575000  0.67440000  0.03251000  1.0
  C  C338  1  0.04312000  0.33410000  0.49452000  1.0
  C  C339  1  0.74657000  0.70730000  0.81827000  1.0
  C  C340  1  0.81310000  0.75690000  0.75672000  1.0
  C  C341  1  0.84370000  0.76830000  0.81614000  1.0
  C  C342  1  0.98722000  0.85000000  0.02167000  1.0
  C  C343  1  0.84107000  0.75250000  0.91145000  1.0
  C  C344  1  0.75790000  0.54380000  0.26219000  1.0
  C  C345  1  0.10106000  0.29090000  0.52520000  1.0
  C  C346  1  0.84437000  0.67470000  0.09191000  1.0
  C  C347  1  0.86624000  0.44490000  0.31439000  1.0
  C  C348  1  0.83260000  0.45310000  0.25525000  1.0
  C  C349  1  0.07807000  0.92860000  0.02020000  1.0
  C  C350  1  0.01095000  0.37220000  0.52467000  1.0
  C  C351  1  0.81328000  0.63120000  0.11999000  1.0
  C  C352  1  0.37164000  0.93790000  0.08821000  1.0
  C  C353  1  0.57705000  0.60000000  0.60715000  1.0
  C  C354  1  0.37158000  0.99250000  0.99718000  1.0
  C  C355  1  0.34588000  0.78100000  0.49826000  1.0
  C  C356  1  0.51837000  0.61310000  0.49050000  1.0
  C  C357  1  0.59689000  0.18340000  0.11112000  1.0
  C  C358  1  0.25612000  0.86690000  0.50327000  1.0
  C  C359  1  0.27682000  0.91360000  0.99986000  1.0
  C  C360  1  0.42477000  0.69910000  0.49269000  1.0
  C  C361  1  0.33959000  0.94750000  0.02928000  1.0
  C  C362  1  0.37190000  0.02360000  0.91175000  1.0
  C  C363  1  0.22788000  0.90750000  0.53434000  1.0
  C  C364  1  0.53887000  0.13910000  0.08415000  1.0
  C  C365  1  0.22000000  0.80170000  0.25918000  1.0
  C  C366  1  0.34147000  0.01310000  0.84815000  1.0
  C  C367  1  0.30910000  0.75730000  0.34756000  1.0
  C  C368  1  0.24746000  0.87290000  0.03035000  1.0
  C  C369  1  0.44986000  0.07740000  0.99395000  1.0
  C  C370  1  0.33894000  0.89490000  0.11533000  1.0
  C  C371  1  0.28782000  0.96140000  0.82135000  1.0
  C  C372  1  0.51764000  0.64200000  0.58090000  1.0
  C  C373  1  0.31575000  0.82560000  0.53251000  1.0
  C  C374  1  0.54312000  0.16590000  0.99452000  1.0
  C  C375  1  0.24657000  0.79270000  0.31827000  1.0
  C  C376  1  0.31310000  0.74310000  0.25672000  1.0
  C  C377  1  0.34370000  0.73170000  0.31614000  1.0
  C  C378  1  0.48722000  0.65000000  0.52167000  1.0
  C  C379  1  0.34107000  0.74750000  0.41145000  1.0
  C  C380  1  0.25790000  0.95620000  0.76219000  1.0
  C  C381  1  0.60106000  0.20910000  0.02520000  1.0
  C  C382  1  0.34437000  0.82530000  0.59191000  1.0
  C  C383  1  0.36624000  0.05510000  0.81439000  1.0
  C  C384  1  0.33260000  0.04690000  0.75525000  1.0
  C  C385  1  0.57807000  0.57140000  0.52020000  1.0
  C  C386  1  0.51095000  0.12780000  0.02467000  1.0
  C  C387  1  0.31328000  0.86880000  0.61999000  1.0
  C  C388  1  0.87164000  0.43790000  0.08821000  1.0
  C  C389  1  0.07705000  0.10000000  0.60715000  1.0
  C  C390  1  0.87158000  0.49250000  0.99718000  1.0
  C  C391  1  0.84588000  0.28100000  0.49826000  1.0
  C  C392  1  0.01837000  0.11310000  0.49050000  1.0
  C  C393  1  0.09689000  0.68340000  0.11112000  1.0
  C  C394  1  0.75612000  0.36690000  0.50327000  1.0
  C  C395  1  0.77682000  0.41360000  0.99986000  1.0
  C  C396  1  0.92477000  0.19910000  0.49269000  1.0
  C  C397  1  0.83959000  0.44750000  0.02928000  1.0
  C  C398  1  0.87190000  0.52360000  0.91175000  1.0
  C  C399  1  0.72788000  0.40750000  0.53434000  1.0
  C  C400  1  0.03887000  0.63910000  0.08415000  1.0
  C  C401  1  0.72000000  0.30170000  0.25918000  1.0
  C  C402  1  0.84147000  0.51310000  0.84815000  1.0
  C  C403  1  0.80910000  0.25730000  0.34756000  1.0
  C  C404  1  0.74746000  0.37290000  0.03035000  1.0
  C  C405  1  0.94986000  0.57740000  0.99395000  1.0
  C  C406  1  0.83894000  0.39490000  0.11533000  1.0
  C  C407  1  0.78782000  0.46140000  0.82135000  1.0
  C  C408  1  0.01764000  0.14200000  0.58090000  1.0
  C  C409  1  0.81575000  0.32560000  0.53251000  1.0
  C  C410  1  0.04312000  0.66590000  0.99452000  1.0
  C  C411  1  0.74657000  0.29270000  0.31827000  1.0
  C  C412  1  0.81310000  0.24310000  0.25672000  1.0
  C  C413  1  0.84370000  0.23170000  0.31614000  1.0
  C  C414  1  0.98722000  0.15000000  0.52167000  1.0
  C  C415  1  0.84107000  0.24750000  0.41145000  1.0
  C  C416  1  0.75790000  0.45620000  0.76219000  1.0
  C  C417  1  0.10106000  0.70910000  0.02520000  1.0
  C  C418  1  0.84437000  0.32530000  0.59191000  1.0
  C  C419  1  0.86624000  0.55510000  0.81439000  1.0
  C  C420  1  0.83260000  0.54690000  0.75525000  1.0
  C  C421  1  0.07807000  0.07140000  0.52020000  1.0
  C  C422  1  0.01095000  0.62780000  0.02467000  1.0
  C  C423  1  0.81328000  0.36880000  0.61999000  1.0
  C  C424  1  0.62836000  0.93790000  0.41179000  1.0
  C  C425  1  0.42295000  0.60000000  0.89285000  1.0
  C  C426  1  0.62842000  0.99250000  0.50282000  1.0
  C  C427  1  0.65412000  0.78100000  0.00174000  1.0
  C  C428  1  0.48163000  0.61310000  0.00950000  1.0
  C  C429  1  0.40311000  0.18340000  0.38888000  1.0
  C  C430  1  0.74388000  0.86690000  0.99673000  1.0
  C  C431  1  0.72318000  0.91360000  0.50014000  1.0
  C  C432  1  0.57523000  0.69910000  0.00731000  1.0
  C  C433  1  0.66041000  0.94750000  0.47072000  1.0
  C  C434  1  0.62810000  0.02360000  0.58825000  1.0
  C  C435  1  0.77212000  0.90750000  0.96566000  1.0
  C  C436  1  0.46113000  0.13910000  0.41585000  1.0
  C  C437  1  0.78000000  0.80170000  0.24082000  1.0
  C  C438  1  0.65853000  0.01310000  0.65185000  1.0
  C  C439  1  0.69090000  0.75730000  0.15244000  1.0
  C  C440  1  0.75254000  0.87290000  0.46965000  1.0
  C  C441  1  0.55014000  0.07740000  0.50605000  1.0
  C  C442  1  0.66106000  0.89490000  0.38467000  1.0
  C  C443  1  0.71218000  0.96140000  0.67865000  1.0
  C  C444  1  0.48236000  0.64200000  0.91910000  1.0
  C  C445  1  0.68425000  0.82560000  0.96749000  1.0
  C  C446  1  0.45688000  0.16590000  0.50548000  1.0
  C  C447  1  0.75343000  0.79270000  0.18173000  1.0
  C  C448  1  0.68690000  0.74310000  0.24328000  1.0
  C  C449  1  0.65630000  0.73170000  0.18386000  1.0
  C  C450  1  0.51278000  0.65000000  0.97833000  1.0
  C  C451  1  0.65893000  0.74750000  0.08855000  1.0
  C  C452  1  0.74210000  0.95620000  0.73781000  1.0
  C  C453  1  0.39894000  0.20910000  0.47480000  1.0
  C  C454  1  0.65563000  0.82530000  0.90809000  1.0
  C  C455  1  0.63376000  0.05510000  0.68561000  1.0
  C  C456  1  0.66740000  0.04690000  0.74475000  1.0
  C  C457  1  0.42193000  0.57140000  0.97980000  1.0
  C  C458  1  0.48905000  0.12780000  0.47533000  1.0
  C  C459  1  0.68672000  0.86880000  0.88001000  1.0
  C  C460  1  0.12836000  0.43790000  0.41179000  1.0
  C  C461  1  0.92295000  0.10000000  0.89285000  1.0
  C  C462  1  0.12842000  0.49250000  0.50282000  1.0
  C  C463  1  0.15412000  0.28100000  0.00174000  1.0
  C  C464  1  0.98163000  0.11310000  0.00950000  1.0
  C  C465  1  0.90311000  0.68340000  0.38888000  1.0
  C  C466  1  0.24388000  0.36690000  0.99673000  1.0
  C  C467  1  0.22318000  0.41360000  0.50014000  1.0
  C  C468  1  0.07523000  0.19910000  0.00731000  1.0
  C  C469  1  0.16041000  0.44750000  0.47072000  1.0
  C  C470  1  0.12810000  0.52360000  0.58825000  1.0
  C  C471  1  0.27212000  0.40750000  0.96566000  1.0
  C  C472  1  0.96113000  0.63910000  0.41585000  1.0
  C  C473  1  0.28000000  0.30170000  0.24082000  1.0
  C  C474  1  0.15853000  0.51310000  0.65185000  1.0
  C  C475  1  0.19090000  0.25730000  0.15244000  1.0
  C  C476  1  0.25254000  0.37290000  0.46965000  1.0
  C  C477  1  0.05014000  0.57740000  0.50605000  1.0
  C  C478  1  0.16106000  0.39490000  0.38467000  1.0
  C  C479  1  0.21218000  0.46140000  0.67865000  1.0
  C  C480  1  0.98236000  0.14200000  0.91910000  1.0
  C  C481  1  0.18425000  0.32560000  0.96749000  1.0
  C  C482  1  0.95688000  0.66590000  0.50548000  1.0
  C  C483  1  0.25343000  0.29270000  0.18173000  1.0
  C  C484  1  0.18690000  0.24310000  0.24328000  1.0
  C  C485  1  0.15630000  0.23170000  0.18386000  1.0
  C  C486  1  0.01278000  0.15000000  0.97833000  1.0
  C  C487  1  0.15893000  0.24750000  0.08855000  1.0
  C  C488  1  0.24210000  0.45620000  0.73781000  1.0
  C  C489  1  0.89894000  0.70910000  0.47480000  1.0
  C  C490  1  0.15563000  0.32530000  0.90809000  1.0
  C  C491  1  0.13376000  0.55510000  0.68561000  1.0
  C  C492  1  0.16740000  0.54690000  0.74475000  1.0
  C  C493  1  0.92193000  0.07140000  0.97980000  1.0
  C  C494  1  0.98905000  0.62780000  0.47533000  1.0
  C  C495  1  0.18672000  0.36880000  0.88001000  1.0
  N  N496  1  0.37117000  0.78101000  0.91746000  1.0
  N  N497  1  0.72246000  0.13590000  0.91219000  1.0
  N  N498  1  0.72127000  0.00010000  0.27168000  1.0
  N  N499  1  0.57480000  0.96111000  0.97307000  1.0
  N  N500  1  0.65627000  0.01856000  0.05975000  1.0
  N  N501  1  0.57485000  0.92718000  0.06336000  1.0
  N  N502  1  0.74459000  0.09010000  0.40779000  1.0
  N  N503  1  0.39180000  0.43528000  0.42208000  1.0
  N  N504  1  0.74691000  0.22280000  0.77201000  1.0
  N  N505  1  0.59747000  0.26002000  0.47353000  1.0
  N  N506  1  0.60422000  0.29900000  0.56492000  1.0
  N  N507  1  0.68724000  0.21254000  0.55933000  1.0
  N  N508  1  0.87117000  0.28101000  0.91746000  1.0
  N  N509  1  0.22246000  0.63590000  0.91219000  1.0
  N  N510  1  0.22127000  0.50010000  0.27168000  1.0
  N  N511  1  0.07480000  0.46111000  0.97307000  1.0
  N  N512  1  0.15627000  0.51856000  0.05975000  1.0
  N  N513  1  0.07485000  0.42718000  0.06336000  1.0
  N  N514  1  0.24459000  0.59010000  0.40779000  1.0
  N  N515  1  0.89180000  0.93528000  0.42208000  1.0
  N  N516  1  0.24691000  0.72280000  0.77201000  1.0
  N  N517  1  0.09747000  0.76002000  0.47353000  1.0
  N  N518  1  0.10422000  0.79900000  0.56492000  1.0
  N  N519  1  0.18724000  0.71254000  0.55933000  1.0
  N  N520  1  0.62883000  0.78101000  0.58254000  1.0
  N  N521  1  0.27754000  0.13590000  0.58781000  1.0
  N  N522  1  0.27873000  0.00010000  0.22832000  1.0
  N  N523  1  0.42520000  0.96111000  0.52693000  1.0
  N  N524  1  0.34373000  0.01856000  0.44025000  1.0
  N  N525  1  0.42515000  0.92718000  0.43664000  1.0
  N  N526  1  0.25541000  0.09010000  0.09221000  1.0
  N  N527  1  0.60820000  0.43528000  0.07792000  1.0
  N  N528  1  0.25309000  0.22280000  0.72799000  1.0
  N  N529  1  0.40253000  0.26002000  0.02647000  1.0
  N  N530  1  0.39578000  0.29900000  0.93508000  1.0
  N  N531  1  0.31276000  0.21254000  0.94067000  1.0
  N  N532  1  0.12883000  0.28101000  0.58254000  1.0
  N  N533  1  0.77754000  0.63590000  0.58781000  1.0
  N  N534  1  0.77873000  0.50010000  0.22832000  1.0
  N  N535  1  0.92520000  0.46111000  0.52693000  1.0
  N  N536  1  0.84373000  0.51856000  0.44025000  1.0
  N  N537  1  0.92515000  0.42718000  0.43664000  1.0
  N  N538  1  0.75541000  0.59010000  0.09221000  1.0
  N  N539  1  0.10820000  0.93528000  0.07792000  1.0
  N  N540  1  0.75309000  0.72280000  0.72799000  1.0
  N  N541  1  0.90253000  0.76002000  0.02647000  1.0
  N  N542  1  0.89578000  0.79900000  0.93508000  1.0
  N  N543  1  0.81276000  0.71254000  0.94067000  1.0
  N  N544  1  0.62883000  0.21899000  0.08254000  1.0
  N  N545  1  0.27754000  0.86410000  0.08781000  1.0
  N  N546  1  0.27873000  0.99990000  0.72832000  1.0
  N  N547  1  0.42520000  0.03889000  0.02693000  1.0
  N  N548  1  0.34373000  0.98144000  0.94025000  1.0
  N  N549  1  0.42515000  0.07282000  0.93664000  1.0
  N  N550  1  0.25541000  0.90990000  0.59221000  1.0
  N  N551  1  0.60820000  0.56472000  0.57792000  1.0
  N  N552  1  0.25309000  0.77720000  0.22799000  1.0
  N  N553  1  0.40253000  0.73998000  0.52647000  1.0
  N  N554  1  0.39578000  0.70100000  0.43508000  1.0
  N  N555  1  0.31276000  0.78746000  0.44067000  1.0
  N  N556  1  0.12883000  0.71899000  0.08254000  1.0
  N  N557  1  0.77754000  0.36410000  0.08781000  1.0
  N  N558  1  0.77873000  0.49990000  0.72832000  1.0
  N  N559  1  0.92520000  0.53889000  0.02693000  1.0
  N  N560  1  0.84373000  0.48144000  0.94025000  1.0
  N  N561  1  0.92515000  0.57282000  0.93664000  1.0
  N  N562  1  0.75541000  0.40990000  0.59221000  1.0
  N  N563  1  0.10820000  0.06472000  0.57792000  1.0
  N  N564  1  0.75309000  0.27720000  0.22799000  1.0
  N  N565  1  0.90253000  0.23998000  0.52647000  1.0
  N  N566  1  0.89578000  0.20100000  0.43508000  1.0
  N  N567  1  0.81276000  0.28746000  0.44067000  1.0
  N  N568  1  0.37117000  0.21899000  0.41746000  1.0
  N  N569  1  0.72246000  0.86410000  0.41219000  1.0
  N  N570  1  0.72127000  0.99990000  0.77168000  1.0
  N  N571  1  0.57480000  0.03889000  0.47307000  1.0
  N  N572  1  0.65627000  0.98144000  0.55975000  1.0
  N  N573  1  0.57485000  0.07282000  0.56336000  1.0
  N  N574  1  0.74459000  0.90990000  0.90779000  1.0
  N  N575  1  0.39180000  0.56472000  0.92208000  1.0
  N  N576  1  0.74691000  0.77720000  0.27201000  1.0
  N  N577  1  0.59747000  0.73998000  0.97353000  1.0
  N  N578  1  0.60422000  0.70100000  0.06492000  1.0
  N  N579  1  0.68724000  0.78746000  0.05933000  1.0
  N  N580  1  0.87117000  0.71899000  0.41746000  1.0
  N  N581  1  0.22246000  0.36410000  0.41219000  1.0
  N  N582  1  0.22127000  0.49990000  0.77168000  1.0
  N  N583  1  0.07480000  0.53889000  0.47307000  1.0
  N  N584  1  0.15627000  0.48144000  0.55975000  1.0
  N  N585  1  0.07485000  0.57282000  0.56336000  1.0
  N  N586  1  0.24459000  0.40990000  0.90779000  1.0
  N  N587  1  0.89180000  0.06472000  0.92208000  1.0
  N  N588  1  0.24691000  0.27720000  0.27201000  1.0
  N  N589  1  0.09747000  0.23998000  0.97353000  1.0
  N  N590  1  0.10422000  0.20100000  0.06492000  1.0
  N  N591  1  0.18724000  0.28746000  0.05933000  1.0
