# generated using pymatgen
data_Ce2H20C36O13
_symmetry_space_group_name_H-M   'P 1'
_cell_length_a   12.48180000
_cell_length_b   21.76300000
_cell_length_c   16.50900000
_cell_angle_alpha   90.00000000
_cell_angle_beta   103.57700000
_cell_angle_gamma   90.00000000
_symmetry_Int_Tables_number   1
_chemical_formula_structural   Ce2H20C36O13
_chemical_formula_sum   'Ce8 H80 C144 O52'
_cell_volume   4359.20936599
_cell_formula_units_Z   4
loop_
 _symmetry_equiv_pos_site_id
 _symmetry_equiv_pos_as_xyz
  1  'x, y, z'
loop_
 _atom_site_type_symbol
 _atom_site_label
 _atom_site_symmetry_multiplicity
 _atom_site_fract_x
 _atom_site_fract_y
 _atom_site_fract_z
 _atom_site_occupancy
  Ce  Ce0  1  0.97106000  0.95262000  0.09979000  1.0
  Ce  Ce1  1  0.47106000  0.45262000  0.09979000  1.0
  Ce  Ce2  1  0.02894000  0.95262000  0.40021000  1.0
  Ce  Ce3  1  0.52894000  0.45262000  0.40021000  1.0
  Ce  Ce4  1  0.02894000  0.04738000  0.90021000  1.0
  Ce  Ce5  1  0.52894000  0.54738000  0.90021000  1.0
  Ce  Ce6  1  0.97106000  0.04738000  0.59979000  1.0
  Ce  Ce7  1  0.47106000  0.54738000  0.59979000  1.0
  H  H8  1  0.94250000  0.02620000  0.23420000  1.0
  H  H9  1  0.61820000  0.95070000  0.95860000  1.0
  H  H10  1  0.43580000  0.95000000  0.88960000  1.0
  H  H11  1  0.70850000  0.95280000  0.74230000  1.0
  H  H12  1  0.86320000  0.16570000  0.94190000  1.0
  H  H13  1  0.66960000  0.23410000  0.13230000  1.0
  H  H14  1  0.74620000  0.13770000  0.14600000  1.0
  H  H15  1  0.69570000  0.89200000  0.35090000  1.0
  H  H16  1  0.65390000  0.89800000  0.10500000  1.0
  H  H17  1  0.46760000  0.89090000  0.08860000  1.0
  H  H18  1  0.44250000  0.52620000  0.23420000  1.0
  H  H19  1  0.11820000  0.45070000  0.95860000  1.0
  H  H20  1  0.93580000  0.45000000  0.88960000  1.0
  H  H21  1  0.20850000  0.45280000  0.74230000  1.0
  H  H22  1  0.36320000  0.66570000  0.94190000  1.0
  H  H23  1  0.16960000  0.73410000  0.13230000  1.0
  H  H24  1  0.24620000  0.63770000  0.14600000  1.0
  H  H25  1  0.19570000  0.39200000  0.35090000  1.0
  H  H26  1  0.15390000  0.39800000  0.10500000  1.0
  H  H27  1  0.96760000  0.39090000  0.08860000  1.0
  H  H28  1  0.05750000  0.02620000  0.26580000  1.0
  H  H29  1  0.38180000  0.95070000  0.54140000  1.0
  H  H30  1  0.56420000  0.95000000  0.61040000  1.0
  H  H31  1  0.29150000  0.95280000  0.75770000  1.0
  H  H32  1  0.13680000  0.16570000  0.55810000  1.0
  H  H33  1  0.33040000  0.23410000  0.36770000  1.0
  H  H34  1  0.25380000  0.13770000  0.35400000  1.0
  H  H35  1  0.30430000  0.89200000  0.14910000  1.0
  H  H36  1  0.34610000  0.89800000  0.39500000  1.0
  H  H37  1  0.53240000  0.89090000  0.41140000  1.0
  H  H38  1  0.55750000  0.52620000  0.26580000  1.0
  H  H39  1  0.88180000  0.45070000  0.54140000  1.0
  H  H40  1  0.06420000  0.45000000  0.61040000  1.0
  H  H41  1  0.79150000  0.45280000  0.75770000  1.0
  H  H42  1  0.63680000  0.66570000  0.55810000  1.0
  H  H43  1  0.83040000  0.73410000  0.36770000  1.0
  H  H44  1  0.75380000  0.63770000  0.35400000  1.0
  H  H45  1  0.80430000  0.39200000  0.14910000  1.0
  H  H46  1  0.84610000  0.39800000  0.39500000  1.0
  H  H47  1  0.03240000  0.39090000  0.41140000  1.0
  H  H48  1  0.05750000  0.97380000  0.76580000  1.0
  H  H49  1  0.38180000  0.04930000  0.04140000  1.0
  H  H50  1  0.56420000  0.05000000  0.11040000  1.0
  H  H51  1  0.29150000  0.04720000  0.25770000  1.0
  H  H52  1  0.13680000  0.83430000  0.05810000  1.0
  H  H53  1  0.33040000  0.76590000  0.86770000  1.0
  H  H54  1  0.25380000  0.86230000  0.85400000  1.0
  H  H55  1  0.30430000  0.10800000  0.64910000  1.0
  H  H56  1  0.34610000  0.10200000  0.89500000  1.0
  H  H57  1  0.53240000  0.10910000  0.91140000  1.0
  H  H58  1  0.55750000  0.47380000  0.76580000  1.0
  H  H59  1  0.88180000  0.54930000  0.04140000  1.0
  H  H60  1  0.06420000  0.55000000  0.11040000  1.0
  H  H61  1  0.79150000  0.54720000  0.25770000  1.0
  H  H62  1  0.63680000  0.33430000  0.05810000  1.0
  H  H63  1  0.83040000  0.26590000  0.86770000  1.0
  H  H64  1  0.75380000  0.36230000  0.85400000  1.0
  H  H65  1  0.80430000  0.60800000  0.64910000  1.0
  H  H66  1  0.84610000  0.60200000  0.89500000  1.0
  H  H67  1  0.03240000  0.60910000  0.91140000  1.0
  H  H68  1  0.94250000  0.97380000  0.73420000  1.0
  H  H69  1  0.61820000  0.04930000  0.45860000  1.0
  H  H70  1  0.43580000  0.05000000  0.38960000  1.0
  H  H71  1  0.70850000  0.04720000  0.24230000  1.0
  H  H72  1  0.86320000  0.83430000  0.44190000  1.0
  H  H73  1  0.66960000  0.76590000  0.63230000  1.0
  H  H74  1  0.74620000  0.86230000  0.64600000  1.0
  H  H75  1  0.69570000  0.10800000  0.85090000  1.0
  H  H76  1  0.65390000  0.10200000  0.60500000  1.0
  H  H77  1  0.46760000  0.10910000  0.58860000  1.0
  H  H78  1  0.44250000  0.47380000  0.73420000  1.0
  H  H79  1  0.11820000  0.54930000  0.45860000  1.0
  H  H80  1  0.93580000  0.55000000  0.38960000  1.0
  H  H81  1  0.20850000  0.54720000  0.24230000  1.0
  H  H82  1  0.36320000  0.33430000  0.44190000  1.0
  H  H83  1  0.16960000  0.26590000  0.63230000  1.0
  H  H84  1  0.24620000  0.36230000  0.64600000  1.0
  H  H85  1  0.19570000  0.60800000  0.85090000  1.0
  H  H86  1  0.15390000  0.60200000  0.60500000  1.0
  H  H87  1  0.96760000  0.60910000  0.58860000  1.0
  C  C88  1  0.79980000  0.95670000  0.90190000  1.0
  C  C89  1  0.68090000  0.95350000  0.85490000  1.0
  C  C90  1  0.59860000  0.95150000  0.90070000  1.0
  C  C91  1  0.48980000  0.95080000  0.85930000  1.0
  C  C92  1  0.45870000  0.95120000  0.77270000  1.0
  C  C93  1  0.65330000  0.95260000  0.77170000  1.0
  C  C94  1  0.86370000  0.07900000  0.05560000  1.0
  C  C95  1  0.81380000  0.14250000  0.04350000  1.0
  C  C96  1  0.82440000  0.17980000  0.97990000  1.0
  C  C97  1  0.77880000  0.23870000  0.97010000  1.0
  C  C98  1  0.70930000  0.22100000  0.09430000  1.0
  C  C99  1  0.75430000  0.16310000  0.10260000  1.0
  C  C100  1  0.81610000  0.90060000  0.24080000  1.0
  C  C101  1  0.64940000  0.89300000  0.29780000  1.0
  C  C102  1  0.69380000  0.89490000  0.23110000  1.0
  C  C103  1  0.62430000  0.89560000  0.15150000  1.0
  C  C104  1  0.51310000  0.89270000  0.14190000  1.0
  C  C105  1  0.46590000  0.89250000  0.21060000  1.0
  C  C106  1  0.29980000  0.45670000  0.90190000  1.0
  C  C107  1  0.18090000  0.45350000  0.85490000  1.0
  C  C108  1  0.09860000  0.45150000  0.90070000  1.0
  C  C109  1  0.98980000  0.45080000  0.85930000  1.0
  C  C110  1  0.95870000  0.45120000  0.77270000  1.0
  C  C111  1  0.15330000  0.45260000  0.77170000  1.0
  C  C112  1  0.36370000  0.57900000  0.05560000  1.0
  C  C113  1  0.31380000  0.64250000  0.04350000  1.0
  C  C114  1  0.32440000  0.67980000  0.97990000  1.0
  C  C115  1  0.27880000  0.73870000  0.97010000  1.0
  C  C116  1  0.20930000  0.72100000  0.09430000  1.0
  C  C117  1  0.25430000  0.66310000  0.10260000  1.0
  C  C118  1  0.31610000  0.40060000  0.24080000  1.0
  C  C119  1  0.14940000  0.39300000  0.29780000  1.0
  C  C120  1  0.19380000  0.39490000  0.23110000  1.0
  C  C121  1  0.12430000  0.39560000  0.15150000  1.0
  C  C122  1  0.01310000  0.39270000  0.14190000  1.0
  C  C123  1  0.96590000  0.39250000  0.21060000  1.0
  C  C124  1  0.20020000  0.95670000  0.59810000  1.0
  C  C125  1  0.31910000  0.95350000  0.64510000  1.0
  C  C126  1  0.40140000  0.95150000  0.59930000  1.0
  C  C127  1  0.51020000  0.95080000  0.64070000  1.0
  C  C128  1  0.54130000  0.95120000  0.72730000  1.0
  C  C129  1  0.34670000  0.95260000  0.72830000  1.0
  C  C130  1  0.13630000  0.07900000  0.44440000  1.0
  C  C131  1  0.18620000  0.14250000  0.45650000  1.0
  C  C132  1  0.17560000  0.17980000  0.52010000  1.0
  C  C133  1  0.22120000  0.23870000  0.52990000  1.0
  C  C134  1  0.29070000  0.22100000  0.40570000  1.0
  C  C135  1  0.24570000  0.16310000  0.39740000  1.0
  C  C136  1  0.18390000  0.90060000  0.25920000  1.0
  C  C137  1  0.35060000  0.89300000  0.20220000  1.0
  C  C138  1  0.30620000  0.89490000  0.26890000  1.0
  C  C139  1  0.37570000  0.89560000  0.34850000  1.0
  C  C140  1  0.48690000  0.89270000  0.35810000  1.0
  C  C141  1  0.53410000  0.89250000  0.28940000  1.0
  C  C142  1  0.70020000  0.45670000  0.59810000  1.0
  C  C143  1  0.81910000  0.45350000  0.64510000  1.0
  C  C144  1  0.90140000  0.45150000  0.59930000  1.0
  C  C145  1  0.01020000  0.45080000  0.64070000  1.0
  C  C146  1  0.04130000  0.45120000  0.72730000  1.0
  C  C147  1  0.84670000  0.45260000  0.72830000  1.0
  C  C148  1  0.63630000  0.57900000  0.44440000  1.0
  C  C149  1  0.68620000  0.64250000  0.45650000  1.0
  C  C150  1  0.67560000  0.67980000  0.52010000  1.0
  C  C151  1  0.72120000  0.73870000  0.52990000  1.0
  C  C152  1  0.79070000  0.72100000  0.40570000  1.0
  C  C153  1  0.74570000  0.66310000  0.39740000  1.0
  C  C154  1  0.68390000  0.40060000  0.25920000  1.0
  C  C155  1  0.85060000  0.39300000  0.20220000  1.0
  C  C156  1  0.80620000  0.39490000  0.26890000  1.0
  C  C157  1  0.87570000  0.39560000  0.34850000  1.0
  C  C158  1  0.98690000  0.39270000  0.35810000  1.0
  C  C159  1  0.03410000  0.39250000  0.28940000  1.0
  C  C160  1  0.20020000  0.04330000  0.09810000  1.0
  C  C161  1  0.31910000  0.04650000  0.14510000  1.0
  C  C162  1  0.40140000  0.04850000  0.09930000  1.0
  C  C163  1  0.51020000  0.04920000  0.14070000  1.0
  C  C164  1  0.54130000  0.04880000  0.22730000  1.0
  C  C165  1  0.34670000  0.04740000  0.22830000  1.0
  C  C166  1  0.13630000  0.92100000  0.94440000  1.0
  C  C167  1  0.18620000  0.85750000  0.95650000  1.0
  C  C168  1  0.17560000  0.82020000  0.02010000  1.0
  C  C169  1  0.22120000  0.76130000  0.02990000  1.0
  C  C170  1  0.29070000  0.77900000  0.90570000  1.0
  C  C171  1  0.24570000  0.83690000  0.89740000  1.0
  C  C172  1  0.18390000  0.09940000  0.75920000  1.0
  C  C173  1  0.35060000  0.10700000  0.70220000  1.0
  C  C174  1  0.30620000  0.10510000  0.76890000  1.0
  C  C175  1  0.37570000  0.10440000  0.84850000  1.0
  C  C176  1  0.48690000  0.10730000  0.85810000  1.0
  C  C177  1  0.53410000  0.10750000  0.78940000  1.0
  C  C178  1  0.70020000  0.54330000  0.09810000  1.0
  C  C179  1  0.81910000  0.54650000  0.14510000  1.0
  C  C180  1  0.90140000  0.54850000  0.09930000  1.0
  C  C181  1  0.01020000  0.54920000  0.14070000  1.0
  C  C182  1  0.04130000  0.54880000  0.22730000  1.0
  C  C183  1  0.84670000  0.54740000  0.22830000  1.0
  C  C184  1  0.63630000  0.42100000  0.94440000  1.0
  C  C185  1  0.68620000  0.35750000  0.95650000  1.0
  C  C186  1  0.67560000  0.32020000  0.02010000  1.0
  C  C187  1  0.72120000  0.26130000  0.02990000  1.0
  C  C188  1  0.79070000  0.27900000  0.90570000  1.0
  C  C189  1  0.74570000  0.33690000  0.89740000  1.0
  C  C190  1  0.68390000  0.59940000  0.75920000  1.0
  C  C191  1  0.85060000  0.60700000  0.70220000  1.0
  C  C192  1  0.80620000  0.60510000  0.76890000  1.0
  C  C193  1  0.87570000  0.60440000  0.84850000  1.0
  C  C194  1  0.98690000  0.60730000  0.85810000  1.0
  C  C195  1  0.03410000  0.60750000  0.78940000  1.0
  C  C196  1  0.79980000  0.04330000  0.40190000  1.0
  C  C197  1  0.68090000  0.04650000  0.35490000  1.0
  C  C198  1  0.59860000  0.04850000  0.40070000  1.0
  C  C199  1  0.48980000  0.04920000  0.35930000  1.0
  C  C200  1  0.45870000  0.04880000  0.27270000  1.0
  C  C201  1  0.65330000  0.04740000  0.27170000  1.0
  C  C202  1  0.86370000  0.92100000  0.55560000  1.0
  C  C203  1  0.81380000  0.85750000  0.54350000  1.0
  C  C204  1  0.82440000  0.82020000  0.47990000  1.0
  C  C205  1  0.77880000  0.76130000  0.47010000  1.0
  C  C206  1  0.70930000  0.77900000  0.59430000  1.0
  C  C207  1  0.75430000  0.83690000  0.60260000  1.0
  C  C208  1  0.81610000  0.09940000  0.74080000  1.0
  C  C209  1  0.64940000  0.10700000  0.79780000  1.0
  C  C210  1  0.69380000  0.10510000  0.73110000  1.0
  C  C211  1  0.62430000  0.10440000  0.65150000  1.0
  C  C212  1  0.51310000  0.10730000  0.64190000  1.0
  C  C213  1  0.46590000  0.10750000  0.71060000  1.0
  C  C214  1  0.29980000  0.54330000  0.40190000  1.0
  C  C215  1  0.18090000  0.54650000  0.35490000  1.0
  C  C216  1  0.09860000  0.54850000  0.40070000  1.0
  C  C217  1  0.98980000  0.54920000  0.35930000  1.0
  C  C218  1  0.95870000  0.54880000  0.27270000  1.0
  C  C219  1  0.15330000  0.54740000  0.27170000  1.0
  C  C220  1  0.36370000  0.42100000  0.55560000  1.0
  C  C221  1  0.31380000  0.35750000  0.54350000  1.0
  C  C222  1  0.32440000  0.32020000  0.47990000  1.0
  C  C223  1  0.27880000  0.26130000  0.47010000  1.0
  C  C224  1  0.20930000  0.27900000  0.59430000  1.0
  C  C225  1  0.25430000  0.33690000  0.60260000  1.0
  C  C226  1  0.31610000  0.59940000  0.74080000  1.0
  C  C227  1  0.14940000  0.60700000  0.79780000  1.0
  C  C228  1  0.19380000  0.60510000  0.73110000  1.0
  C  C229  1  0.12430000  0.60440000  0.65150000  1.0
  C  C230  1  0.01310000  0.60730000  0.64190000  1.0
  C  C231  1  0.96590000  0.60750000  0.71060000  1.0
  O  O232  1  0.82180000  0.94160000  0.97700000  1.0
  O  O233  1  0.86930000  0.97660000  0.86250000  1.0
  O  O234  1  0.84310000  0.04450000  0.10890000  1.0
  O  O235  1  0.92550000  0.06210000  0.00820000  1.0
  O  O236  1  0.84670000  0.91210000  0.17530000  1.0
  O  O237  1  0.87910000  0.89340000  0.31030000  1.0
  O  O238  1  0.32180000  0.44160000  0.97700000  1.0
  O  O239  1  0.36930000  0.47660000  0.86250000  1.0
  O  O240  1  0.34310000  0.54450000  0.10890000  1.0
  O  O241  1  0.42550000  0.56210000  0.00820000  1.0
  O  O242  1  0.34670000  0.41210000  0.17530000  1.0
  O  O243  1  0.37910000  0.39340000  0.31030000  1.0
  O  O244  1  0.17820000  0.94160000  0.52300000  1.0
  O  O245  1  0.13070000  0.97660000  0.63750000  1.0
  O  O246  1  0.15690000  0.04450000  0.39110000  1.0
  O  O247  1  0.07450000  0.06210000  0.49180000  1.0
  O  O248  1  0.15330000  0.91210000  0.32470000  1.0
  O  O249  1  0.12090000  0.89340000  0.18970000  1.0
  O  O250  1  0.67820000  0.44160000  0.52300000  1.0
  O  O251  1  0.63070000  0.47660000  0.63750000  1.0
  O  O252  1  0.65690000  0.54450000  0.39110000  1.0
  O  O253  1  0.57450000  0.56210000  0.49180000  1.0
  O  O254  1  0.65330000  0.41210000  0.32470000  1.0
  O  O255  1  0.62090000  0.39340000  0.18970000  1.0
  O  O256  1  0.17820000  0.05840000  0.02300000  1.0
  O  O257  1  0.13070000  0.02340000  0.13750000  1.0
  O  O258  1  0.15690000  0.95550000  0.89110000  1.0
  O  O259  1  0.07450000  0.93790000  0.99180000  1.0
  O  O260  1  0.15330000  0.08790000  0.82470000  1.0
  O  O261  1  0.12090000  0.10660000  0.68970000  1.0
  O  O262  1  0.67820000  0.55840000  0.02300000  1.0
  O  O263  1  0.63070000  0.52340000  0.13750000  1.0
  O  O264  1  0.65690000  0.45550000  0.89110000  1.0
  O  O265  1  0.57450000  0.43790000  0.99180000  1.0
  O  O266  1  0.65330000  0.58790000  0.82470000  1.0
  O  O267  1  0.62090000  0.60660000  0.68970000  1.0
  O  O268  1  0.82180000  0.05840000  0.47700000  1.0
  O  O269  1  0.86930000  0.02340000  0.36250000  1.0
  O  O270  1  0.84310000  0.95550000  0.60890000  1.0
  O  O271  1  0.92550000  0.93790000  0.50820000  1.0
  O  O272  1  0.84670000  0.08790000  0.67530000  1.0
  O  O273  1  0.87910000  0.10660000  0.81030000  1.0
  O  O274  1  0.32180000  0.55840000  0.47700000  1.0
  O  O275  1  0.36930000  0.52340000  0.36250000  1.0
  O  O276  1  0.34310000  0.45550000  0.60890000  1.0
  O  O277  1  0.42550000  0.43790000  0.50820000  1.0
  O  O278  1  0.34670000  0.58790000  0.67530000  1.0
  O  O279  1  0.37910000  0.60660000  0.81030000  1.0
  O  O280  1  0.00000000  0.00430000  0.25000000  1.0
  O  O281  1  0.50000000  0.50430000  0.25000000  1.0
  O  O282  1  0.00000000  0.99570000  0.75000000  1.0
  O  O283  1  0.50000000  0.49570000  0.75000000  1.0
