# generated using pymatgen
data_SmHC5(NO2)2
_symmetry_space_group_name_H-M   'P 1'
_cell_length_a   16.26630000
_cell_length_b   16.53970000
_cell_length_c   16.53970000
_cell_angle_alpha   76.00700000
_cell_angle_beta   60.54530000
_cell_angle_gamma   60.54530000
_symmetry_Int_Tables_number   1
_chemical_formula_structural   SmHC5(NO2)2
_chemical_formula_sum   'Sm16 H16 C80 N32 O64'
_cell_volume   3373.84995030
_cell_formula_units_Z   16
loop_
 _symmetry_equiv_pos_site_id
 _symmetry_equiv_pos_as_xyz
  1  'x, y, z'
loop_
 _atom_site_type_symbol
 _atom_site_label
 _atom_site_symmetry_multiplicity
 _atom_site_fract_x
 _atom_site_fract_y
 _atom_site_fract_z
 _atom_site_occupancy
  Sm  Sm0  1  0.23817000  0.87848000  0.46942000  1.0
  Sm  Sm1  1  0.51265000  0.52266000  0.11400000  1.0
  Sm  Sm2  1  0.08607000  0.62152000  0.03058000  1.0
  Sm  Sm3  1  0.64931000  0.97734000  0.38600000  1.0
  Sm  Sm4  1  0.70759000  0.53058000  0.37848000  1.0
  Sm  Sm5  1  0.62665000  0.88600000  0.02266000  1.0
  Sm  Sm6  1  0.11665000  0.96942000  0.12152000  1.0
  Sm  Sm7  1  0.03531000  0.61400000  0.47734000  1.0
  Sm  Sm8  1  0.76183000  0.12152000  0.53058000  1.0
  Sm  Sm9  1  0.48735000  0.47734000  0.88600000  1.0
  Sm  Sm10  1  0.91393000  0.37848000  0.96942000  1.0
  Sm  Sm11  1  0.35069000  0.02266000  0.61400000  1.0
  Sm  Sm12  1  0.29241000  0.46942000  0.62152000  1.0
  Sm  Sm13  1  0.37335000  0.11400000  0.97734000  1.0
  Sm  Sm14  1  0.88335000  0.03058000  0.87848000  1.0
  Sm  Sm15  1  0.96469000  0.38600000  0.52266000  1.0
  H  H16  1  0.30670000  0.75150000  0.25250000  1.0
  H  H17  1  0.36540000  0.89920000  0.21760000  1.0
  H  H18  1  0.81070000  0.74850000  0.24750000  1.0
  H  H19  1  0.98220000  0.60080000  0.28240000  1.0
  H  H20  1  0.55920000  0.74750000  0.25150000  1.0
  H  H21  1  0.58300000  0.78240000  0.39920000  1.0
  H  H22  1  0.05820000  0.75250000  0.24850000  1.0
  H  H23  1  0.26460000  0.71760000  0.10080000  1.0
  H  H24  1  0.69330000  0.24850000  0.74750000  1.0
  H  H25  1  0.63460000  0.10080000  0.78240000  1.0
  H  H26  1  0.18930000  0.25150000  0.75250000  1.0
  H  H27  1  0.01780000  0.39920000  0.71760000  1.0
  H  H28  1  0.44080000  0.25250000  0.74850000  1.0
  H  H29  1  0.41700000  0.21760000  0.60080000  1.0
  H  H30  1  0.94180000  0.24750000  0.75150000  1.0
  H  H31  1  0.73540000  0.28240000  0.89920000  1.0
  C  C32  1  0.35330000  0.71570000  0.27850000  1.0
  C  C33  1  0.42730000  0.66900000  0.36900000  1.0
  C  C34  1  0.48610000  0.60420000  0.29840000  1.0
  C  C35  1  0.57930000  0.51370000  0.27550000  1.0
  C  C36  1  0.43910000  0.67770000  0.44830000  1.0
  C  C37  1  0.39920000  0.91320000  0.24020000  1.0
  C  C38  1  0.43710000  0.94100000  0.33700000  1.0
  C  C39  1  0.50490000  0.95060000  0.24540000  1.0
  C  C40  1  0.59850000  0.96820000  0.20580000  1.0
  C  C41  1  0.41940000  0.95340000  0.43160000  1.0
  C  C42  1  0.84750000  0.78430000  0.22150000  1.0
  C  C43  1  0.96530000  0.83100000  0.13100000  1.0
  C  C44  1  0.88870000  0.89580000  0.20160000  1.0
  C  C45  1  0.86850000  0.98630000  0.22450000  1.0
  C  C46  1  0.06510000  0.82230000  0.05170000  1.0
  C  C47  1  0.05260000  0.58680000  0.25980000  1.0
  C  C48  1  0.21510000  0.55900000  0.16300000  1.0
  C  C49  1  0.20090000  0.54940000  0.25460000  1.0
  C  C50  1  0.27250000  0.53180000  0.29420000  1.0
  C  C51  1  0.30440000  0.54660000  0.06840000  1.0
  C  C52  1  0.63180000  0.72150000  0.21570000  1.0
  C  C53  1  0.79630000  0.63100000  0.16900000  1.0
  C  C54  1  0.78450000  0.70160000  0.10420000  1.0
  C  C55  1  0.85480000  0.72450000  0.01370000  1.0
  C  C56  1  0.88740000  0.55170000  0.17770000  1.0
  C  C57  1  0.63940000  0.75980000  0.41320000  1.0
  C  C58  1  0.77410000  0.66300000  0.44100000  1.0
  C  C59  1  0.75030000  0.75460000  0.45060000  1.0
  C  C60  1  0.80430000  0.79420000  0.46820000  1.0
  C  C61  1  0.85100000  0.56840000  0.45340000  1.0
  C  C62  1  0.06900000  0.77850000  0.28430000  1.0
  C  C63  1  0.09630000  0.86900000  0.33100000  1.0
  C  C64  1  0.09030000  0.79840000  0.39580000  1.0
  C  C65  1  0.09300000  0.77550000  0.48630000  1.0
  C  C66  1  0.11680000  0.94830000  0.32230000  1.0
  C  C67  1  0.31240000  0.74020000  0.08680000  1.0
  C  C68  1  0.37810000  0.83700000  0.05900000  1.0
  C  C69  1  0.45550000  0.74540000  0.04940000  1.0
  C  C70  1  0.56670000  0.70580000  0.03180000  1.0
  C  C71  1  0.37280000  0.93160000  0.04660000  1.0
  C  C72  1  0.64670000  0.28430000  0.72150000  1.0
  C  C73  1  0.57270000  0.33100000  0.63100000  1.0
  C  C74  1  0.51390000  0.39580000  0.70160000  1.0
  C  C75  1  0.42070000  0.48630000  0.72450000  1.0
  C  C76  1  0.56090000  0.32230000  0.55170000  1.0
  C  C77  1  0.60080000  0.08680000  0.75980000  1.0
  C  C78  1  0.56290000  0.05900000  0.66300000  1.0
  C  C79  1  0.49510000  0.04940000  0.75460000  1.0
  C  C80  1  0.40150000  0.03180000  0.79420000  1.0
  C  C81  1  0.58060000  0.04660000  0.56840000  1.0
  C  C82  1  0.15250000  0.21570000  0.77850000  1.0
  C  C83  1  0.03470000  0.16900000  0.86900000  1.0
  C  C84  1  0.11130000  0.10420000  0.79840000  1.0
  C  C85  1  0.13150000  0.01370000  0.77550000  1.0
  C  C86  1  0.93490000  0.17770000  0.94830000  1.0
  C  C87  1  0.94740000  0.41320000  0.74020000  1.0
  C  C88  1  0.78490000  0.44100000  0.83700000  1.0
  C  C89  1  0.79910000  0.45060000  0.74540000  1.0
  C  C90  1  0.72750000  0.46820000  0.70580000  1.0
  C  C91  1  0.69560000  0.45340000  0.93160000  1.0
  C  C92  1  0.36820000  0.27850000  0.78430000  1.0
  C  C93  1  0.20370000  0.36900000  0.83100000  1.0
  C  C94  1  0.21550000  0.29840000  0.89580000  1.0
  C  C95  1  0.14520000  0.27550000  0.98630000  1.0
  C  C96  1  0.11260000  0.44830000  0.82230000  1.0
  C  C97  1  0.36060000  0.24020000  0.58680000  1.0
  C  C98  1  0.22590000  0.33700000  0.55900000  1.0
  C  C99  1  0.24970000  0.24540000  0.54940000  1.0
  C  C100  1  0.19570000  0.20580000  0.53180000  1.0
  C  C101  1  0.14900000  0.43160000  0.54660000  1.0
  C  C102  1  0.93100000  0.22150000  0.71570000  1.0
  C  C103  1  0.90370000  0.13100000  0.66900000  1.0
  C  C104  1  0.90970000  0.20160000  0.60420000  1.0
  C  C105  1  0.90700000  0.22450000  0.51370000  1.0
  C  C106  1  0.88320000  0.05170000  0.67770000  1.0
  C  C107  1  0.68760000  0.25980000  0.91320000  1.0
  C  C108  1  0.62190000  0.16300000  0.94100000  1.0
  C  C109  1  0.54450000  0.25460000  0.95060000  1.0
  C  C110  1  0.43330000  0.29420000  0.96820000  1.0
  C  C111  1  0.62720000  0.06840000  0.95340000  1.0
  N  N112  1  0.43880000  0.63390000  0.24110000  1.0
  N  N113  1  0.34260000  0.73980000  0.35660000  1.0
  N  N114  1  0.37000000  0.91640000  0.33160000  1.0
  N  N115  1  0.48120000  0.93230000  0.18530000  1.0
  N  N116  1  0.81380000  0.86610000  0.25890000  1.0
  N  N117  1  0.93900000  0.76020000  0.14340000  1.0
  N  N118  1  0.11800000  0.58360000  0.16840000  1.0
  N  N119  1  0.09880000  0.56770000  0.31470000  1.0
  N  N120  1  0.67990000  0.75890000  0.13390000  1.0
  N  N121  1  0.69920000  0.64340000  0.23980000  1.0
  N  N122  1  0.70160000  0.66840000  0.41640000  1.0
  N  N123  1  0.66650000  0.81470000  0.43230000  1.0
  N  N124  1  0.07270000  0.74110000  0.36610000  1.0
  N  N125  1  0.08240000  0.85660000  0.26020000  1.0
  N  N126  1  0.28640000  0.83160000  0.08360000  1.0
  N  N127  1  0.41350000  0.68530000  0.06770000  1.0
  N  N128  1  0.56120000  0.36610000  0.75890000  1.0
  N  N129  1  0.65740000  0.26020000  0.64340000  1.0
  N  N130  1  0.63000000  0.08360000  0.66840000  1.0
  N  N131  1  0.51880000  0.06770000  0.81470000  1.0
  N  N132  1  0.18620000  0.13390000  0.74110000  1.0
  N  N133  1  0.06100000  0.23980000  0.85660000  1.0
  N  N134  1  0.88200000  0.41640000  0.83160000  1.0
  N  N135  1  0.90120000  0.43230000  0.68530000  1.0
  N  N136  1  0.32010000  0.24110000  0.86610000  1.0
  N  N137  1  0.30080000  0.35660000  0.76020000  1.0
  N  N138  1  0.29840000  0.33160000  0.58360000  1.0
  N  N139  1  0.33350000  0.18530000  0.56770000  1.0
  N  N140  1  0.92730000  0.25890000  0.63390000  1.0
  N  N141  1  0.91760000  0.14340000  0.73980000  1.0
  N  N142  1  0.71360000  0.16840000  0.91640000  1.0
  N  N143  1  0.58650000  0.31470000  0.93230000  1.0
  O  O144  1  0.60330000  0.46880000  0.20960000  1.0
  O  O145  1  0.63410000  0.48170000  0.32090000  1.0
  O  O146  1  0.52650000  0.62700000  0.45420000  1.0
  O  O147  1  0.36190000  0.73740000  0.50840000  1.0
  O  O148  1  0.65250000  0.95730000  0.11830000  1.0
  O  O149  1  0.61940000  0.99590000  0.25530000  1.0
  O  O150  1  0.46940000  0.98410000  0.44390000  1.0
  O  O151  1  0.35110000  0.93040000  0.49900000  1.0
  O  O152  1  0.78170000  0.03120000  0.29040000  1.0
  O  O153  1  0.93670000  0.01830000  0.17910000  1.0
  O  O154  1  0.10770000  0.87300000  0.04580000  1.0
  O  O155  1  0.10770000  0.76260000  0.99160000  1.0
  O  O156  1  0.22810000  0.54270000  0.38170000  1.0
  O  O157  1  0.37060000  0.50410000  0.24470000  1.0
  O  O158  1  0.39740000  0.51590000  0.05610000  1.0
  O  O159  1  0.28050000  0.56960000  0.00100000  1.0
  O  O160  1  0.81290000  0.79040000  0.96880000  1.0
  O  O161  1  0.95500000  0.67910000  0.98170000  1.0
  O  O162  1  0.98070000  0.54580000  0.12700000  1.0
  O  O163  1  0.87030000  0.49160000  0.23740000  1.0
  O  O164  1  0.77080000  0.88170000  0.45730000  1.0
  O  O165  1  0.87470000  0.74470000  0.49590000  1.0
  O  O166  1  0.91330000  0.55610000  0.48410000  1.0
  O  O167  1  0.85010000  0.50100000  0.43040000  1.0
  O  O168  1  0.07210000  0.70960000  0.53120000  1.0
  O  O169  1  0.11580000  0.82090000  0.51830000  1.0
  O  O170  1  0.15350000  0.95420000  0.37300000  1.0
  O  O171  1  0.09930000  0.00840000  0.26260000  1.0
  O  O172  1  0.60980000  0.61830000  0.04270000  1.0
  O  O173  1  0.61530000  0.75530000  0.00410000  1.0
  O  O174  1  0.45350000  0.94390000  0.01590000  1.0
  O  O175  1  0.28150000  0.99900000  0.06960000  1.0
  O  O176  1  0.39670000  0.53120000  0.79040000  1.0
  O  O177  1  0.36590000  0.51830000  0.67910000  1.0
  O  O178  1  0.47350000  0.37300000  0.54580000  1.0
  O  O179  1  0.63810000  0.26260000  0.49160000  1.0
  O  O180  1  0.34750000  0.04270000  0.88170000  1.0
  O  O181  1  0.38060000  0.00410000  0.74470000  1.0
  O  O182  1  0.53060000  0.01590000  0.55610000  1.0
  O  O183  1  0.64890000  0.06960000  0.50100000  1.0
  O  O184  1  0.21830000  0.96880000  0.70960000  1.0
  O  O185  1  0.06330000  0.98170000  0.82090000  1.0
  O  O186  1  0.89230000  0.12700000  0.95420000  1.0
  O  O187  1  0.89230000  0.23740000  0.00840000  1.0
  O  O188  1  0.77190000  0.45730000  0.61830000  1.0
  O  O189  1  0.62940000  0.49590000  0.75530000  1.0
  O  O190  1  0.60260000  0.48410000  0.94390000  1.0
  O  O191  1  0.71950000  0.43040000  0.99900000  1.0
  O  O192  1  0.18710000  0.20960000  0.03120000  1.0
  O  O193  1  0.04500000  0.32090000  0.01830000  1.0
  O  O194  1  0.01930000  0.45420000  0.87300000  1.0
  O  O195  1  0.12970000  0.50840000  0.76260000  1.0
  O  O196  1  0.22920000  0.11830000  0.54270000  1.0
  O  O197  1  0.12530000  0.25530000  0.50410000  1.0
  O  O198  1  0.08670000  0.44390000  0.51590000  1.0
  O  O199  1  0.14990000  0.49900000  0.56960000  1.0
  O  O200  1  0.92790000  0.29040000  0.46880000  1.0
  O  O201  1  0.88420000  0.17910000  0.48170000  1.0
  O  O202  1  0.84650000  0.04580000  0.62700000  1.0
  O  O203  1  0.90070000  0.99160000  0.73740000  1.0
  O  O204  1  0.39020000  0.38170000  0.95730000  1.0
  O  O205  1  0.38470000  0.24470000  0.99590000  1.0
  O  O206  1  0.54650000  0.05610000  0.98410000  1.0
  O  O207  1  0.71850000  0.00100000  0.93040000  1.0
