# generated using pymatgen
data_LuH3(CO2)3
_symmetry_space_group_name_H-M   'P 1'
_cell_length_a   11.08100000
_cell_length_b   7.02260000
_cell_length_c   6.48500000
_cell_angle_alpha   90.00000000
_cell_angle_beta   109.12900000
_cell_angle_gamma   90.00000000
_symmetry_Int_Tables_number   1
_chemical_formula_structural   LuH3(CO2)3
_chemical_formula_sum   'Lu2 H6 C6 O12'
_cell_volume   476.78108362
_cell_formula_units_Z   2
loop_
 _symmetry_equiv_pos_site_id
 _symmetry_equiv_pos_as_xyz
  1  'x, y, z'
loop_
 _atom_site_type_symbol
 _atom_site_label
 _atom_site_symmetry_multiplicity
 _atom_site_fract_x
 _atom_site_fract_y
 _atom_site_fract_z
 _atom_site_occupancy
  Lu  Lu0  1  0.00000000  0.18130000  0.00000000  1.0
  Lu  Lu1  1  0.50000000  0.68130000  0.00000000  1.0
  H  H2  1  0.80460000  0.52230000  0.10580000  1.0
  H  H3  1  0.30460000  0.02230000  0.10580000  1.0
  H  H4  1  0.19540000  0.52230000  0.89420000  1.0
  H  H5  1  0.69540000  0.02230000  0.89420000  1.0
  H  H6  1  0.00000000  0.11390000  0.50000000  1.0
  H  H7  1  0.50000000  0.61390000  0.50000000  1.0
  C  C8  1  0.76430000  0.47580000  0.96570000  1.0
  C  C9  1  0.26430000  0.97580000  0.96570000  1.0
  C  C10  1  0.23570000  0.47580000  0.03430000  1.0
  C  C11  1  0.73570000  0.97580000  0.03430000  1.0
  C  C12  1  0.00000000  0.24640000  0.50000000  1.0
  C  C13  1  0.50000000  0.74640000  0.50000000  1.0
  O  O14  1  0.99380000  0.32910000  0.66710000  1.0
  O  O15  1  0.82930000  0.37450000  0.88480000  1.0
  O  O16  1  0.65220000  0.52010000  0.87800000  1.0
  O  O17  1  0.49380000  0.82910000  0.66710000  1.0
  O  O18  1  0.32930000  0.87450000  0.88480000  1.0
  O  O19  1  0.15220000  0.02010000  0.87800000  1.0
  O  O20  1  0.00620000  0.32910000  0.33290000  1.0
  O  O21  1  0.17070000  0.37450000  0.11520000  1.0
  O  O22  1  0.34780000  0.52010000  0.12200000  1.0
  O  O23  1  0.50620000  0.82910000  0.33290000  1.0
  O  O24  1  0.67070000  0.87450000  0.11520000  1.0
  O  O25  1  0.84780000  0.02010000  0.12200000  1.0
