# generated using pymatgen
data_V6Zn2H24C24N18O11
_symmetry_space_group_name_H-M   'P 1'
_cell_length_a   8.97110000
_cell_length_b   14.14390000
_cell_length_c   19.87820000
_cell_angle_alpha   82.15100000
_cell_angle_beta   82.39700000
_cell_angle_gamma   74.90100000
_symmetry_Int_Tables_number   1
_chemical_formula_structural   V6Zn2H24C24N18O11
_chemical_formula_sum   'V12 Zn4 H48 C48 N36 O22'
_cell_volume   2400.01109864
_cell_formula_units_Z   2
loop_
 _symmetry_equiv_pos_site_id
 _symmetry_equiv_pos_as_xyz
  1  'x, y, z'
loop_
 _atom_site_type_symbol
 _atom_site_label
 _atom_site_symmetry_multiplicity
 _atom_site_fract_x
 _atom_site_fract_y
 _atom_site_fract_z
 _atom_site_occupancy
  V  V0  1  0.99130000  0.55990000  0.58255000  1.0
  V  V1  1  0.77908000  0.41481000  0.69276000  1.0
  V  V2  1  0.97273000  0.19668000  0.74761000  1.0
  V  V3  1  0.83282000  0.10977000  0.90050000  1.0
  V  V4  1  0.84390000  0.07187000  0.06392000  1.0
  V  V5  1  0.01310000  0.51560000  0.56089000  1.0
  V  V6  1  0.00870000  0.44010000  0.41745000  1.0
  V  V7  1  0.22092000  0.58519000  0.30724000  1.0
  V  V8  1  0.02727000  0.80332000  0.25239000  1.0
  V  V9  1  0.16718000  0.89023000  0.09950000  1.0
  V  V10  1  0.15610000  0.92813000  0.93608000  1.0
  V  V11  1  0.98690000  0.48440000  0.43911000  1.0
  Zn  Zn12  1  0.38289000  0.48184000  0.63663000  1.0
  Zn  Zn13  1  0.49046000  0.02607000  0.88311000  1.0
  Zn  Zn14  1  0.61711000  0.51816000  0.36337000  1.0
  Zn  Zn15  1  0.50954000  0.97393000  0.11689000  1.0
  H  H16  1  0.88270000  0.53310000  0.84440000  1.0
  H  H17  1  0.89980000  0.63740000  0.85530000  1.0
  H  H18  1  0.41890000  0.57040000  0.77020000  1.0
  H  H19  1  0.06350000  0.48880000  0.73470000  1.0
  H  H20  1  0.93170000  0.31700000  0.92520000  1.0
  H  H21  1  0.96630000  0.39190000  0.86300000  1.0
  H  H22  1  0.49300000  0.25360000  0.84190000  1.0
  H  H23  1  0.13810000  0.15780000  0.92120000  1.0
  H  H24  1  0.96980000  0.29180000  0.09600000  1.0
  H  H25  1  0.97810000  0.26540000  0.02140000  1.0
  H  H26  1  0.53070000  0.18830000  0.02820000  1.0
  H  H27  1  0.16600000  0.10210000  0.10090000  1.0
  H  H28  1  0.19050000  0.16460000  0.56530000  1.0
  H  H29  1  0.24810000  0.09270000  0.62920000  1.0
  H  H30  1  0.21620000  0.33690000  0.58170000  1.0
  H  H31  1  0.59570000  0.26270000  0.66980000  1.0
  H  H32  1  0.28690000  0.94860000  0.64580000  1.0
  H  H33  1  0.42280000  0.85330000  0.64070000  1.0
  H  H34  1  0.30320000  0.00730000  0.76090000  1.0
  H  H35  1  0.74450000  0.96470000  0.75430000  1.0
  H  H36  1  0.73080000  0.77370000  0.52590000  1.0
  H  H37  1  0.66110000  0.80070000  0.59940000  1.0
  H  H38  1  0.62430000  0.61700000  0.62010000  1.0
  H  H39  1  0.27490000  0.66060000  0.51820000  1.0
  H  H40  1  0.11730000  0.46690000  0.15560000  1.0
  H  H41  1  0.10020000  0.36260000  0.14470000  1.0
  H  H42  1  0.58110000  0.42960000  0.22980000  1.0
  H  H43  1  0.93650000  0.51120000  0.26530000  1.0
  H  H44  1  0.06830000  0.68300000  0.07480000  1.0
  H  H45  1  0.03370000  0.60810000  0.13700000  1.0
  H  H46  1  0.50700000  0.74640000  0.15810000  1.0
  H  H47  1  0.86190000  0.84220000  0.07880000  1.0
  H  H48  1  0.03020000  0.70820000  0.90400000  1.0
  H  H49  1  0.02190000  0.73460000  0.97860000  1.0
  H  H50  1  0.46930000  0.81170000  0.97180000  1.0
  H  H51  1  0.83400000  0.89790000  0.89910000  1.0
  H  H52  1  0.80950000  0.83540000  0.43470000  1.0
  H  H53  1  0.75190000  0.90730000  0.37080000  1.0
  H  H54  1  0.78380000  0.66310000  0.41830000  1.0
  H  H55  1  0.40430000  0.73730000  0.33020000  1.0
  H  H56  1  0.71310000  0.05140000  0.35420000  1.0
  H  H57  1  0.57720000  0.14670000  0.35930000  1.0
  H  H58  1  0.69680000  0.99270000  0.23910000  1.0
  H  H59  1  0.25550000  0.03530000  0.24570000  1.0
  H  H60  1  0.26920000  0.22630000  0.47410000  1.0
  H  H61  1  0.33890000  0.19930000  0.40060000  1.0
  H  H62  1  0.37570000  0.38300000  0.37990000  1.0
  H  H63  1  0.72510000  0.33940000  0.48180000  1.0
  C  C64  1  0.97930000  0.53210000  0.93150000  1.0
  C  C65  1  0.99970000  0.43260000  0.95480000  1.0
  C  C66  1  0.01820000  0.40110000  0.02400000  1.0
  C  C67  1  0.39300000  0.06320000  0.54240000  1.0
  C  C68  1  0.45410000  0.96530000  0.56650000  1.0
  C  C69  1  0.55990000  0.90160000  0.52460000  1.0
  C  C70  1  0.95120000  0.56770000  0.85880000  1.0
  C  C71  1  0.32040000  0.55900000  0.77510000  1.0
  C  C72  1  0.13000000  0.51490000  0.75460000  1.0
  C  C73  1  0.00230000  0.35730000  0.90570000  1.0
  C  C74  1  0.39250000  0.25130000  0.85940000  1.0
  C  C75  1  0.20240000  0.19870000  0.90230000  1.0
  C  C76  1  0.02730000  0.29420000  0.05120000  1.0
  C  C77  1  0.42720000  0.18880000  0.04160000  1.0
  C  C78  1  0.23270000  0.14100000  0.08120000  1.0
  C  C79  1  0.28150000  0.13090000  0.58840000  1.0
  C  C80  1  0.30520000  0.30090000  0.60140000  1.0
  C  C81  1  0.51040000  0.25840000  0.64950000  1.0
  C  C82  1  0.39870000  0.92460000  0.63780000  1.0
  C  C83  1  0.40920000  0.98970000  0.74770000  1.0
  C  C84  1  0.64670000  0.96680000  0.74250000  1.0
  C  C85  1  0.63500000  0.79860000  0.55390000  1.0
  C  C86  1  0.54700000  0.64540000  0.59140000  1.0
  C  C87  1  0.35970000  0.67000000  0.53630000  1.0
  C  C88  1  0.02070000  0.46790000  0.06850000  1.0
  C  C89  1  0.00030000  0.56740000  0.04520000  1.0
  C  C90  1  0.98180000  0.59890000  0.97600000  1.0
  C  C91  1  0.60700000  0.93680000  0.45760000  1.0
  C  C92  1  0.54590000  0.03470000  0.43350000  1.0
  C  C93  1  0.44010000  0.09840000  0.47540000  1.0
  C  C94  1  0.04880000  0.43230000  0.14120000  1.0
  C  C95  1  0.67960000  0.44100000  0.22490000  1.0
  C  C96  1  0.87000000  0.48510000  0.24540000  1.0
  C  C97  1  0.99770000  0.64270000  0.09430000  1.0
  C  C98  1  0.60750000  0.74870000  0.14060000  1.0
  C  C99  1  0.79760000  0.80130000  0.09770000  1.0
  C  C100  1  0.97270000  0.70580000  0.94880000  1.0
  C  C101  1  0.57280000  0.81120000  0.95840000  1.0
  C  C102  1  0.76730000  0.85900000  0.91880000  1.0
  C  C103  1  0.71850000  0.86910000  0.41160000  1.0
  C  C104  1  0.69480000  0.69910000  0.39860000  1.0
  C  C105  1  0.48960000  0.74160000  0.35050000  1.0
  C  C106  1  0.60130000  0.07540000  0.36220000  1.0
  C  C107  1  0.59080000  0.01030000  0.25230000  1.0
  C  C108  1  0.35330000  0.03320000  0.25750000  1.0
  C  C109  1  0.36500000  0.20140000  0.44610000  1.0
  C  C110  1  0.45300000  0.35460000  0.40860000  1.0
  C  C111  1  0.64030000  0.33000000  0.46370000  1.0
  N  N112  1  0.43960000  0.60350000  0.58080000  1.0
  N  N113  1  0.41030000  0.74950000  0.52020000  1.0
  N  N114  1  0.09710000  0.55230000  0.81250000  1.0
  N  N115  1  0.22200000  0.58050000  0.82790000  1.0
  N  N116  1  0.26970000  0.51910000  0.72830000  1.0
  N  N117  1  0.15760000  0.29390000  0.89220000  1.0
  N  N118  1  0.27760000  0.33130000  0.86390000  1.0
  N  N119  1  0.35290000  0.16710000  0.88180000  1.0
  N  N120  1  0.18790000  0.23480000  0.05630000  1.0
  N  N121  1  0.31210000  0.26720000  0.02980000  1.0
  N  N122  1  0.38310000  0.11140000  0.07410000  1.0
  N  N123  1  0.35480000  0.20390000  0.60750000  1.0
  N  N124  1  0.48540000  0.17490000  0.63990000  1.0
  N  N125  1  0.40100000  0.33850000  0.62740000  1.0
  N  N126  1  0.47170000  0.95360000  0.69040000  1.0
  N  N127  1  0.62800000  0.94050000  0.68650000  1.0
  N  N128  1  0.51630000  0.99780000  0.78390000  1.0
  N  N129  1  0.53280000  0.73000000  0.55750000  1.0
  N  N130  1  0.56040000  0.39650000  0.41920000  1.0
  N  N131  1  0.58970000  0.25050000  0.47980000  1.0
  N  N132  1  0.90290000  0.44770000  0.18750000  1.0
  N  N133  1  0.77800000  0.41950000  0.17210000  1.0
  N  N134  1  0.73030000  0.48090000  0.27170000  1.0
  N  N135  1  0.84240000  0.70610000  0.10780000  1.0
  N  N136  1  0.72240000  0.66870000  0.13610000  1.0
  N  N137  1  0.64710000  0.83290000  0.11820000  1.0
  N  N138  1  0.81210000  0.76520000  0.94370000  1.0
  N  N139  1  0.68790000  0.73280000  0.97020000  1.0
  N  N140  1  0.61690000  0.88860000  0.92590000  1.0
  N  N141  1  0.64520000  0.79610000  0.39250000  1.0
  N  N142  1  0.51460000  0.82510000  0.36010000  1.0
  N  N143  1  0.59900000  0.66150000  0.37260000  1.0
  N  N144  1  0.52830000  0.04640000  0.30960000  1.0
  N  N145  1  0.37200000  0.05950000  0.31350000  1.0
  N  N146  1  0.48370000  0.00220000  0.21610000  1.0
  N  N147  1  0.46720000  0.27000000  0.44250000  1.0
  O  O148  1  0.17680000  0.51790000  0.58730000  1.0
  O  O149  1  0.93910000  0.59560000  0.50910000  1.0
  O  O150  1  0.89430000  0.47890000  0.63260000  1.0
  O  O151  1  0.84680000  0.28450000  0.69440000  1.0
  O  O152  1  0.89060000  0.19410000  0.83610000  1.0
  O  O153  1  0.67370000  0.08000000  0.89240000  1.0
  O  O154  1  0.98420000  0.00340000  0.90130000  1.0
  O  O155  1  0.83620000  0.14740000  0.98060000  1.0
  O  O156  1  0.70400000  0.01970000  0.07950000  1.0
  O  O157  1  0.94290000  0.66650000  0.60910000  1.0
  O  O158  1  0.60120000  0.44490000  0.67340000  1.0
  O  O159  1  0.82320000  0.48210000  0.41270000  1.0
  O  O160  1  0.06090000  0.40440000  0.49090000  1.0
  O  O161  1  0.10570000  0.52110000  0.36740000  1.0
  O  O162  1  0.15320000  0.71550000  0.30560000  1.0
  O  O163  1  0.10940000  0.80590000  0.16390000  1.0
  O  O164  1  0.32630000  0.92000000  0.10760000  1.0
  O  O165  1  0.01580000  0.99660000  0.09870000  1.0
  O  O166  1  0.16380000  0.85260000  0.01940000  1.0
  O  O167  1  0.29600000  0.98030000  0.92050000  1.0
  O  O168  1  0.05710000  0.33350000  0.39090000  1.0
  O  O169  1  0.39880000  0.55510000  0.32660000  1.0
