# generated using pymatgen
data_FeAg2H4(C4N3)2
_symmetry_space_group_name_H-M   'P 1'
_cell_length_a   7.49300000
_cell_length_b   13.05280000
_cell_length_c   14.25840000
_cell_angle_alpha   90.00000000
_cell_angle_beta   92.05500000
_cell_angle_gamma   90.00000000
_symmetry_Int_Tables_number   1
_chemical_formula_structural   FeAg2H4(C4N3)2
_chemical_formula_sum   'Fe4 Ag8 H16 C32 N24'
_cell_volume   1393.64066683
_cell_formula_units_Z   4
loop_
 _symmetry_equiv_pos_site_id
 _symmetry_equiv_pos_as_xyz
  1  'x, y, z'
loop_
 _atom_site_type_symbol
 _atom_site_label
 _atom_site_symmetry_multiplicity
 _atom_site_fract_x
 _atom_site_fract_y
 _atom_site_fract_z
 _atom_site_occupancy
  Fe  Fe0  1  0.50000000  0.50000000  0.00000000  1.0
  Fe  Fe1  1  0.00000000  0.00000000  0.00000000  1.0
  Fe  Fe2  1  0.00000000  0.00000000  0.50000000  1.0
  Fe  Fe3  1  0.50000000  0.50000000  0.50000000  1.0
  Ag  Ag4  1  0.72949000  0.24462000  0.75932000  1.0
  Ag  Ag5  1  0.96395000  0.44483000  0.78324000  1.0
  Ag  Ag6  1  0.77051000  0.74462000  0.24068000  1.0
  Ag  Ag7  1  0.53605000  0.94483000  0.21676000  1.0
  Ag  Ag8  1  0.27051000  0.75538000  0.24068000  1.0
  Ag  Ag9  1  0.03605000  0.55517000  0.21676000  1.0
  Ag  Ag10  1  0.22949000  0.25538000  0.75932000  1.0
  Ag  Ag11  1  0.46395000  0.05517000  0.78324000  1.0
  H  H12  1  0.38700000  0.28800000  0.00500000  1.0
  H  H13  1  0.38200000  0.15300000  0.11300000  1.0
  H  H14  1  0.47800000  0.19600000  0.26500000  1.0
  H  H15  1  0.54100000  0.47900000  0.20900000  1.0
  H  H16  1  0.11300000  0.78800000  0.99500000  1.0
  H  H17  1  0.11800000  0.65300000  0.88700000  1.0
  H  H18  1  0.02200000  0.69600000  0.73500000  1.0
  H  H19  1  0.95900000  0.97900000  0.79100000  1.0
  H  H20  1  0.61300000  0.71200000  0.99500000  1.0
  H  H21  1  0.61800000  0.84700000  0.88700000  1.0
  H  H22  1  0.52200000  0.80400000  0.73500000  1.0
  H  H23  1  0.45900000  0.52100000  0.79100000  1.0
  H  H24  1  0.88700000  0.21200000  0.00500000  1.0
  H  H25  1  0.88200000  0.34700000  0.11300000  1.0
  H  H26  1  0.97800000  0.30400000  0.26500000  1.0
  H  H27  1  0.04100000  0.02100000  0.20900000  1.0
  C  C28  1  0.65830000  0.34270000  0.86510000  1.0
  C  C29  1  0.14860000  0.44670000  0.89380000  1.0
  C  C30  1  0.42390000  0.29420000  0.06950000  1.0
  C  C31  1  0.42150000  0.21480000  0.13320000  1.0
  C  C32  1  0.47080000  0.23690000  0.22530000  1.0
  C  C33  1  0.51460000  0.40410000  0.18737000  1.0
  C  C34  1  0.80490000  0.15080000  0.65150000  1.0
  C  C35  1  0.80810000  0.48020000  0.66540000  1.0
  C  C36  1  0.84170000  0.84270000  0.13490000  1.0
  C  C37  1  0.35140000  0.94670000  0.10620000  1.0
  C  C38  1  0.07610000  0.79420000  0.93050000  1.0
  C  C39  1  0.07850000  0.71480000  0.86680000  1.0
  C  C40  1  0.02920000  0.73690000  0.77470000  1.0
  C  C41  1  0.98540000  0.90410000  0.81263000  1.0
  C  C42  1  0.69510000  0.65080000  0.34850000  1.0
  C  C43  1  0.69190000  0.98020000  0.33460000  1.0
  C  C44  1  0.34170000  0.65730000  0.13490000  1.0
  C  C45  1  0.85140000  0.55330000  0.10620000  1.0
  C  C46  1  0.57610000  0.70580000  0.93050000  1.0
  C  C47  1  0.57850000  0.78520000  0.86680000  1.0
  C  C48  1  0.52920000  0.76310000  0.77470000  1.0
  C  C49  1  0.48540000  0.59590000  0.81263000  1.0
  C  C50  1  0.19510000  0.84920000  0.34850000  1.0
  C  C51  1  0.19190000  0.51980000  0.33460000  1.0
  C  C52  1  0.15830000  0.15730000  0.86510000  1.0
  C  C53  1  0.64860000  0.05330000  0.89380000  1.0
  C  C54  1  0.92390000  0.20580000  0.06950000  1.0
  C  C55  1  0.92150000  0.28520000  0.13320000  1.0
  C  C56  1  0.97080000  0.26310000  0.22530000  1.0
  C  C57  1  0.01460000  0.09590000  0.18737000  1.0
  C  C58  1  0.30490000  0.34920000  0.65150000  1.0
  C  C59  1  0.30810000  0.01980000  0.66540000  1.0
  N  N60  1  0.60900000  0.40186000  0.91839000  1.0
  N  N61  1  0.27220000  0.46404000  0.94169000  1.0
  N  N62  1  0.47320000  0.38976000  0.09519000  1.0
  N  N63  1  0.51620000  0.33140000  0.25283000  1.0
  N  N64  1  0.85360000  0.09780000  0.59396000  1.0
  N  N65  1  0.71280000  0.49944000  0.60380000  1.0
  N  N66  1  0.89100000  0.90186000  0.08161000  1.0
  N  N67  1  0.22780000  0.96404000  0.05831000  1.0
  N  N68  1  0.02680000  0.88976000  0.90481000  1.0
  N  N69  1  0.98380000  0.83140000  0.74717000  1.0
  N  N70  1  0.64640000  0.59780000  0.40604000  1.0
  N  N71  1  0.78720000  0.99944000  0.39620000  1.0
  N  N72  1  0.39100000  0.59814000  0.08161000  1.0
  N  N73  1  0.72780000  0.53596000  0.05831000  1.0
  N  N74  1  0.52680000  0.61024000  0.90481000  1.0
  N  N75  1  0.48380000  0.66860000  0.74717000  1.0
  N  N76  1  0.14640000  0.90220000  0.40604000  1.0
  N  N77  1  0.28720000  0.50056000  0.39620000  1.0
  N  N78  1  0.10900000  0.09814000  0.91839000  1.0
  N  N79  1  0.77220000  0.03596000  0.94169000  1.0
  N  N80  1  0.97320000  0.11024000  0.09519000  1.0
  N  N81  1  0.01620000  0.16860000  0.25283000  1.0
  N  N82  1  0.35360000  0.40220000  0.59396000  1.0
  N  N83  1  0.21280000  0.00056000  0.60380000  1.0
