# generated using pymatgen
data_TbH6(C2O)6
_symmetry_space_group_name_H-M   'P 1'
_cell_length_a   23.75440000
_cell_length_b   10.53860000
_cell_length_c   19.75840000
_cell_angle_alpha   90.00000000
_cell_angle_beta   125.80500000
_cell_angle_gamma   90.00000000
_symmetry_Int_Tables_number   1
_chemical_formula_structural   TbH6(C2O)6
_chemical_formula_sum   'Tb8 H48 C96 O48'
_cell_volume   4011.49681106
_cell_formula_units_Z   8
loop_
 _symmetry_equiv_pos_site_id
 _symmetry_equiv_pos_as_xyz
  1  'x, y, z'
loop_
 _atom_site_type_symbol
 _atom_site_label
 _atom_site_symmetry_multiplicity
 _atom_site_fract_x
 _atom_site_fract_y
 _atom_site_fract_z
 _atom_site_occupancy
  Tb  Tb0  1  0.49868000  0.04659000  0.12647000  1.0
  Tb  Tb1  1  0.99868000  0.54659000  0.12647000  1.0
  Tb  Tb2  1  0.50132000  0.04659000  0.37353000  1.0
  Tb  Tb3  1  0.00132000  0.54659000  0.37353000  1.0
  Tb  Tb4  1  0.50132000  0.95341000  0.87353000  1.0
  Tb  Tb5  1  0.00132000  0.45341000  0.87353000  1.0
  Tb  Tb6  1  0.49868000  0.95341000  0.62647000  1.0
  Tb  Tb7  1  0.99868000  0.45341000  0.62647000  1.0
  H  H8  1  0.51570000  0.65820000  0.16090000  1.0
  H  H9  1  0.34240000  0.28290000  0.96440000  1.0
  H  H10  1  0.51240000  0.43790000  0.15760000  1.0
  H  H11  1  0.23100000  0.36520000  0.88190000  1.0
  H  H12  1  0.19460000  0.17290000  0.68570000  1.0
  H  H13  1  0.30400000  0.09000000  0.76400000  1.0
  H  H14  1  0.01570000  0.15820000  0.16090000  1.0
  H  H15  1  0.84240000  0.78290000  0.96440000  1.0
  H  H16  1  0.01240000  0.93790000  0.15760000  1.0
  H  H17  1  0.73100000  0.86520000  0.88190000  1.0
  H  H18  1  0.69460000  0.67290000  0.68570000  1.0
  H  H19  1  0.80400000  0.59000000  0.76400000  1.0
  H  H20  1  0.48430000  0.65820000  0.33910000  1.0
  H  H21  1  0.65760000  0.28290000  0.53560000  1.0
  H  H22  1  0.48760000  0.43790000  0.34240000  1.0
  H  H23  1  0.76900000  0.36520000  0.61810000  1.0
  H  H24  1  0.80540000  0.17290000  0.81430000  1.0
  H  H25  1  0.69600000  0.09000000  0.73600000  1.0
  H  H26  1  0.98430000  0.15820000  0.33910000  1.0
  H  H27  1  0.15760000  0.78290000  0.53560000  1.0
  H  H28  1  0.98760000  0.93790000  0.34240000  1.0
  H  H29  1  0.26900000  0.86520000  0.61810000  1.0
  H  H30  1  0.30540000  0.67290000  0.81430000  1.0
  H  H31  1  0.19600000  0.59000000  0.73600000  1.0
  H  H32  1  0.48430000  0.34180000  0.83910000  1.0
  H  H33  1  0.65760000  0.71710000  0.03560000  1.0
  H  H34  1  0.48760000  0.56210000  0.84240000  1.0
  H  H35  1  0.76900000  0.63480000  0.11810000  1.0
  H  H36  1  0.80540000  0.82710000  0.31430000  1.0
  H  H37  1  0.69600000  0.91000000  0.23600000  1.0
  H  H38  1  0.98430000  0.84180000  0.83910000  1.0
  H  H39  1  0.15760000  0.21710000  0.03560000  1.0
  H  H40  1  0.98760000  0.06210000  0.84240000  1.0
  H  H41  1  0.26900000  0.13480000  0.11810000  1.0
  H  H42  1  0.30540000  0.32710000  0.31430000  1.0
  H  H43  1  0.19600000  0.41000000  0.23600000  1.0
  H  H44  1  0.51570000  0.34180000  0.66090000  1.0
  H  H45  1  0.34240000  0.71710000  0.46440000  1.0
  H  H46  1  0.51240000  0.56210000  0.65760000  1.0
  H  H47  1  0.23100000  0.63480000  0.38190000  1.0
  H  H48  1  0.19460000  0.82710000  0.18570000  1.0
  H  H49  1  0.30400000  0.91000000  0.26400000  1.0
  H  H50  1  0.01570000  0.84180000  0.66090000  1.0
  H  H51  1  0.84240000  0.21710000  0.46440000  1.0
  H  H52  1  0.01240000  0.06210000  0.65760000  1.0
  H  H53  1  0.73100000  0.13480000  0.38190000  1.0
  H  H54  1  0.69460000  0.32710000  0.18570000  1.0
  H  H55  1  0.80400000  0.41000000  0.26400000  1.0
  C  C56  1  0.40832000  0.12710000  0.92700000  1.0
  C  C57  1  0.50900000  0.61390000  0.19630000  1.0
  C  C58  1  0.33604000  0.18060000  0.87360000  1.0
  C  C59  1  0.31300000  0.26140000  0.90820000  1.0
  C  C60  1  0.29140000  0.14970000  0.78960000  1.0
  C  C61  1  0.50790000  0.48160000  0.19510000  1.0
  C  C62  1  0.20155000  0.27780000  0.77580000  1.0
  C  C63  1  0.24590000  0.31010000  0.85860000  1.0
  C  C64  1  0.22460000  0.19630000  0.74150000  1.0
  C  C65  1  0.12957000  0.32970000  0.72410000  1.0
  C  C66  1  0.90832000  0.62710000  0.92700000  1.0
  C  C67  1  0.00900000  0.11390000  0.19630000  1.0
  C  C68  1  0.83604000  0.68060000  0.87360000  1.0
  C  C69  1  0.81300000  0.76140000  0.90820000  1.0
  C  C70  1  0.79140000  0.64970000  0.78960000  1.0
  C  C71  1  0.00790000  0.98160000  0.19510000  1.0
  C  C72  1  0.70155000  0.77780000  0.77580000  1.0
  C  C73  1  0.74590000  0.81010000  0.85860000  1.0
  C  C74  1  0.72460000  0.69630000  0.74150000  1.0
  C  C75  1  0.62957000  0.82970000  0.72410000  1.0
  C  C76  1  0.59168000  0.12710000  0.57300000  1.0
  C  C77  1  0.49100000  0.61390000  0.30370000  1.0
  C  C78  1  0.66396000  0.18060000  0.62640000  1.0
  C  C79  1  0.68700000  0.26140000  0.59180000  1.0
  C  C80  1  0.70860000  0.14970000  0.71040000  1.0
  C  C81  1  0.49210000  0.48160000  0.30490000  1.0
  C  C82  1  0.79845000  0.27780000  0.72420000  1.0
  C  C83  1  0.75410000  0.31010000  0.64140000  1.0
  C  C84  1  0.77540000  0.19630000  0.75850000  1.0
  C  C85  1  0.87043000  0.32970000  0.77590000  1.0
  C  C86  1  0.09168000  0.62710000  0.57300000  1.0
  C  C87  1  0.99100000  0.11390000  0.30370000  1.0
  C  C88  1  0.16396000  0.68060000  0.62640000  1.0
  C  C89  1  0.18700000  0.76140000  0.59180000  1.0
  C  C90  1  0.20860000  0.64970000  0.71040000  1.0
  C  C91  1  0.99210000  0.98160000  0.30490000  1.0
  C  C92  1  0.29845000  0.77780000  0.72420000  1.0
  C  C93  1  0.25410000  0.81010000  0.64140000  1.0
  C  C94  1  0.27540000  0.69630000  0.75850000  1.0
  C  C95  1  0.37043000  0.82970000  0.77590000  1.0
  C  C96  1  0.59168000  0.87290000  0.07300000  1.0
  C  C97  1  0.49100000  0.38610000  0.80370000  1.0
  C  C98  1  0.66396000  0.81940000  0.12640000  1.0
  C  C99  1  0.68700000  0.73860000  0.09180000  1.0
  C  C100  1  0.70860000  0.85030000  0.21040000  1.0
  C  C101  1  0.49210000  0.51840000  0.80490000  1.0
  C  C102  1  0.79845000  0.72220000  0.22420000  1.0
  C  C103  1  0.75410000  0.68990000  0.14140000  1.0
  C  C104  1  0.77540000  0.80370000  0.25850000  1.0
  C  C105  1  0.87043000  0.67030000  0.27590000  1.0
  C  C106  1  0.09168000  0.37290000  0.07300000  1.0
  C  C107  1  0.99100000  0.88610000  0.80370000  1.0
  C  C108  1  0.16396000  0.31940000  0.12640000  1.0
  C  C109  1  0.18700000  0.23860000  0.09180000  1.0
  C  C110  1  0.20860000  0.35030000  0.21040000  1.0
  C  C111  1  0.99210000  0.01840000  0.80490000  1.0
  C  C112  1  0.29845000  0.22220000  0.22420000  1.0
  C  C113  1  0.25410000  0.18990000  0.14140000  1.0
  C  C114  1  0.27540000  0.30370000  0.25850000  1.0
  C  C115  1  0.37043000  0.17030000  0.27590000  1.0
  C  C116  1  0.40832000  0.87290000  0.42700000  1.0
  C  C117  1  0.50900000  0.38610000  0.69630000  1.0
  C  C118  1  0.33604000  0.81940000  0.37360000  1.0
  C  C119  1  0.31300000  0.73860000  0.40820000  1.0
  C  C120  1  0.29140000  0.85030000  0.28960000  1.0
  C  C121  1  0.50790000  0.51840000  0.69510000  1.0
  C  C122  1  0.20155000  0.72220000  0.27580000  1.0
  C  C123  1  0.24590000  0.68990000  0.35860000  1.0
  C  C124  1  0.22460000  0.80370000  0.24150000  1.0
  C  C125  1  0.12957000  0.67030000  0.22410000  1.0
  C  C126  1  0.90832000  0.37290000  0.42700000  1.0
  C  C127  1  0.00900000  0.88610000  0.69630000  1.0
  C  C128  1  0.83604000  0.31940000  0.37360000  1.0
  C  C129  1  0.81300000  0.23860000  0.40820000  1.0
  C  C130  1  0.79140000  0.35030000  0.28960000  1.0
  C  C131  1  0.00790000  0.01840000  0.69510000  1.0
  C  C132  1  0.70155000  0.22220000  0.27580000  1.0
  C  C133  1  0.74590000  0.18990000  0.35860000  1.0
  C  C134  1  0.72460000  0.30370000  0.24150000  1.0
  C  C135  1  0.62957000  0.17030000  0.22410000  1.0
  C  C136  1  0.50000000  0.82190000  0.25000000  1.0
  C  C137  1  0.50000000  0.27260000  0.25000000  1.0
  C  C138  1  0.50000000  0.41460000  0.25000000  1.0
  C  C139  1  0.50000000  0.67940000  0.25000000  1.0
  C  C140  1  0.00000000  0.32190000  0.25000000  1.0
  C  C141  1  0.00000000  0.77260000  0.25000000  1.0
  C  C142  1  0.00000000  0.91460000  0.25000000  1.0
  C  C143  1  0.00000000  0.17940000  0.25000000  1.0
  C  C144  1  0.50000000  0.17810000  0.75000000  1.0
  C  C145  1  0.50000000  0.72740000  0.75000000  1.0
  C  C146  1  0.50000000  0.58540000  0.75000000  1.0
  C  C147  1  0.50000000  0.32060000  0.75000000  1.0
  C  C148  1  0.00000000  0.67810000  0.75000000  1.0
  C  C149  1  0.00000000  0.22740000  0.75000000  1.0
  C  C150  1  0.00000000  0.08540000  0.75000000  1.0
  C  C151  1  0.00000000  0.82060000  0.75000000  1.0
  O  O152  1  0.11214000  0.41110000  0.75623000  1.0
  O  O153  1  0.08663000  0.29530000  0.64916000  1.0
  O  O154  1  0.44564000  0.15330000  0.00356000  1.0
  O  O155  1  0.42683000  0.05880000  0.89190000  1.0
  O  O156  1  0.48112000  0.21870000  0.18350000  1.0
  O  O157  1  0.51722000  0.87760000  0.20910000  1.0
  O  O158  1  0.61214000  0.91110000  0.75623000  1.0
  O  O159  1  0.58663000  0.79530000  0.64916000  1.0
  O  O160  1  0.94564000  0.65330000  0.00356000  1.0
  O  O161  1  0.92683000  0.55880000  0.89190000  1.0
  O  O162  1  0.98112000  0.71870000  0.18350000  1.0
  O  O163  1  0.01722000  0.37760000  0.20910000  1.0
  O  O164  1  0.88786000  0.41110000  0.74377000  1.0
  O  O165  1  0.91337000  0.29530000  0.85084000  1.0
  O  O166  1  0.55436000  0.15330000  0.49644000  1.0
  O  O167  1  0.57317000  0.05880000  0.60810000  1.0
  O  O168  1  0.51888000  0.21870000  0.31650000  1.0
  O  O169  1  0.48278000  0.87760000  0.29090000  1.0
  O  O170  1  0.38786000  0.91110000  0.74377000  1.0
  O  O171  1  0.41337000  0.79530000  0.85084000  1.0
  O  O172  1  0.05436000  0.65330000  0.49644000  1.0
  O  O173  1  0.07317000  0.55880000  0.60810000  1.0
  O  O174  1  0.01888000  0.71870000  0.31650000  1.0
  O  O175  1  0.98278000  0.37760000  0.29090000  1.0
  O  O176  1  0.88786000  0.58890000  0.24377000  1.0
  O  O177  1  0.91337000  0.70470000  0.35084000  1.0
  O  O178  1  0.55436000  0.84670000  0.99644000  1.0
  O  O179  1  0.57317000  0.94120000  0.10810000  1.0
  O  O180  1  0.51888000  0.78130000  0.81650000  1.0
  O  O181  1  0.48278000  0.12240000  0.79090000  1.0
  O  O182  1  0.38786000  0.08890000  0.24377000  1.0
  O  O183  1  0.41337000  0.20470000  0.35084000  1.0
  O  O184  1  0.05436000  0.34670000  0.99644000  1.0
  O  O185  1  0.07317000  0.44120000  0.10810000  1.0
  O  O186  1  0.01888000  0.28130000  0.81650000  1.0
  O  O187  1  0.98278000  0.62240000  0.79090000  1.0
  O  O188  1  0.11214000  0.58890000  0.25623000  1.0
  O  O189  1  0.08663000  0.70470000  0.14916000  1.0
  O  O190  1  0.44564000  0.84670000  0.50356000  1.0
  O  O191  1  0.42683000  0.94120000  0.39190000  1.0
  O  O192  1  0.48112000  0.78130000  0.68350000  1.0
  O  O193  1  0.51722000  0.12240000  0.70910000  1.0
  O  O194  1  0.61214000  0.08890000  0.25623000  1.0
  O  O195  1  0.58663000  0.20470000  0.14916000  1.0
  O  O196  1  0.94564000  0.34670000  0.50356000  1.0
  O  O197  1  0.92683000  0.44120000  0.39190000  1.0
  O  O198  1  0.98112000  0.28130000  0.68350000  1.0
  O  O199  1  0.01722000  0.62240000  0.70910000  1.0
