# generated using pymatgen
data_V6Co4H12C20N8O23
_symmetry_space_group_name_H-M   'P 1'
_cell_length_a   12.46160000
_cell_length_b   13.97030000
_cell_length_c   13.97030000
_cell_angle_alpha   78.52620000
_cell_angle_beta   63.51240000
_cell_angle_gamma   63.51240000
_symmetry_Int_Tables_number   1
_chemical_formula_structural   V6Co4H12C20N8O23
_chemical_formula_sum   'V12 Co8 H24 C40 N16 O46'
_cell_volume   1948.32470161
_cell_formula_units_Z   2
loop_
 _symmetry_equiv_pos_site_id
 _symmetry_equiv_pos_as_xyz
  1  'x, y, z'
loop_
 _atom_site_type_symbol
 _atom_site_label
 _atom_site_symmetry_multiplicity
 _atom_site_fract_x
 _atom_site_fract_y
 _atom_site_fract_z
 _atom_site_occupancy
  V  V0  1  0.24776000  0.50231000  0.79179000  1.0
  V  V1  1  0.02643000  0.79652000  0.49886000  1.0
  V  V2  1  0.37859000  0.37645000  0.56625000  1.0
  V  V3  1  0.54186000  0.49769000  0.20821000  1.0
  V  V4  1  0.32181000  0.20348000  0.50114000  1.0
  V  V5  1  0.32129000  0.62355000  0.43375000  1.0
  V  V6  1  0.03955000  0.20821000  0.50231000  1.0
  V  V7  1  0.52529000  0.50114000  0.79652000  1.0
  V  V8  1  0.94484000  0.43375000  0.37645000  1.0
  V  V9  1  0.75007000  0.79179000  0.49769000  1.0
  V  V10  1  0.82295000  0.49886000  0.20348000  1.0
  V  V11  1  0.75504000  0.56625000  0.62355000  1.0
  Co  Co12  1  0.02140000  0.77018000  0.76730000  1.0
  Co  Co13  1  0.46033000  0.99876000  0.66740000  1.0
  Co  Co14  1  0.55888000  0.22982000  0.23270000  1.0
  Co  Co15  1  0.12649000  0.00124000  0.33260000  1.0
  Co  Co16  1  0.78870000  0.23270000  0.77018000  1.0
  Co  Co17  1  0.12773000  0.33260000  0.99876000  1.0
  Co  Co18  1  0.79158000  0.76730000  0.22982000  1.0
  Co  Co19  1  0.45909000  0.66740000  0.00124000  1.0
  H  H20  1  0.34090000  0.69330000  0.67650000  1.0
  H  H21  1  0.48140000  0.78440000  0.64560000  1.0
  H  H22  1  0.17720000  0.06510000  0.71310000  1.0
  H  H23  1  0.73280000  0.55690000  0.01230000  1.0
  H  H24  1  0.93110000  0.59980000  0.91640000  1.0
  H  H25  1  0.74670000  0.83480000  0.77400000  1.0
  H  H26  1  0.71070000  0.30670000  0.32350000  1.0
  H  H27  1  0.91140000  0.21560000  0.35440000  1.0
  H  H28  1  0.95540000  0.93490000  0.28690000  1.0
  H  H29  1  0.30200000  0.44310000  0.98770000  1.0
  H  H30  1  0.44730000  0.40020000  0.08360000  1.0
  H  H31  1  0.35550000  0.16520000  0.22600000  1.0
  H  H32  1  0.01740000  0.32350000  0.69330000  1.0
  H  H33  1  0.12700000  0.35440000  0.78440000  1.0
  H  H34  1  0.89030000  0.28690000  0.06510000  1.0
  H  H35  1  0.74510000  0.98770000  0.55690000  1.0
  H  H36  1  0.84750000  0.08360000  0.59980000  1.0
  H  H37  1  0.52070000  0.22600000  0.83480000  1.0
  H  H38  1  0.03420000  0.67650000  0.30670000  1.0
  H  H39  1  0.26580000  0.64560000  0.21560000  1.0
  H  H40  1  0.24230000  0.71310000  0.93490000  1.0
  H  H41  1  0.28970000  0.01230000  0.44310000  1.0
  H  H42  1  0.53090000  0.91640000  0.40020000  1.0
  H  H43  1  0.58150000  0.77400000  0.16520000  1.0
  C  C44  1  0.30570000  0.76770000  0.68510000  1.0
  C  C45  1  0.38640000  0.81700000  0.67020000  1.0
  C  C46  1  0.20950000  0.97990000  0.70650000  1.0
  C  C47  1  0.12930000  0.92980000  0.72280000  1.0
  C  C48  1  0.98280000  0.99030000  0.75670000  1.0
  C  C49  1  0.75320000  0.61290000  0.94470000  1.0
  C  C50  1  0.86150000  0.63900000  0.89940000  1.0
  C  C51  1  0.75460000  0.78050000  0.81370000  1.0
  C  C52  1  0.64810000  0.75470000  0.85890000  1.0
  C  C53  1  0.52420000  0.81760000  0.83780000  1.0
  C  C54  1  0.75850000  0.23230000  0.31490000  1.0
  C  C55  1  0.87360000  0.18300000  0.32980000  1.0
  C  C56  1  0.89590000  0.02010000  0.29350000  1.0
  C  C57  1  0.78190000  0.07020000  0.27720000  1.0
  C  C58  1  0.72980000  0.00970000  0.24330000  1.0
  C  C59  1  0.31080000  0.38710000  0.05530000  1.0
  C  C60  1  0.39990000  0.36100000  0.10060000  1.0
  C  C61  1  0.34880000  0.21950000  0.18630000  1.0
  C  C62  1  0.26170000  0.24530000  0.14110000  1.0
  C  C63  1  0.17960000  0.18240000  0.16220000  1.0
  C  C64  1  0.99080000  0.31490000  0.76770000  1.0
  C  C65  1  0.05660000  0.32980000  0.81700000  1.0
  C  C66  1  0.91600000  0.29350000  0.97990000  1.0
  C  C67  1  0.85210000  0.27720000  0.92980000  1.0
  C  C68  1  0.73950000  0.24330000  0.99030000  1.0
  C  C69  1  0.69790000  0.05530000  0.61290000  1.0
  C  C70  1  0.76090000  0.10060000  0.63900000  1.0
  C  C71  1  0.56830000  0.18630000  0.78050000  1.0
  C  C72  1  0.50700000  0.14110000  0.75470000  1.0
  C  C73  1  0.36200000  0.16220000  0.81760000  1.0
  C  C74  1  0.07340000  0.68510000  0.23230000  1.0
  C  C75  1  0.20340000  0.67020000  0.18300000  1.0
  C  C76  1  0.18940000  0.70650000  0.02010000  1.0
  C  C77  1  0.05910000  0.72280000  0.07020000  1.0
  C  C78  1  0.97310000  0.75670000  0.00970000  1.0
  C  C79  1  0.36610000  0.94470000  0.38710000  1.0
  C  C80  1  0.50050000  0.89940000  0.36100000  1.0
  C  C81  1  0.53510000  0.81370000  0.21950000  1.0
  C  C82  1  0.40280000  0.85890000  0.24530000  1.0
  C  C83  1  0.34180000  0.83780000  0.18240000  1.0
  N  N84  1  0.17700000  0.82230000  0.71190000  1.0
  N  N85  1  0.33910000  0.92360000  0.68100000  1.0
  N  N86  1  0.64680000  0.67090000  0.92510000  1.0
  N  N87  1  0.86170000  0.72450000  0.83370000  1.0
  N  N88  1  0.71120000  0.17770000  0.28810000  1.0
  N  N89  1  0.94370000  0.07640000  0.31900000  1.0
  N  N90  1  0.24280000  0.32910000  0.07490000  1.0
  N  N91  1  0.41990000  0.27550000  0.16630000  1.0
  N  N92  1  0.88890000  0.28810000  0.82230000  1.0
  N  N93  1  0.02010000  0.31900000  0.92360000  1.0
  N  N94  1  0.57190000  0.07490000  0.67090000  1.0
  N  N95  1  0.69540000  0.16630000  0.72450000  1.0
  N  N96  1  0.99930000  0.71190000  0.17770000  1.0
  N  N97  1  0.26270000  0.68100000  0.07640000  1.0
  N  N98  1  0.31770000  0.92510000  0.32910000  1.0
  N  N99  1  0.58620000  0.83370000  0.27550000  1.0
  O  O100  1  0.91600000  0.93630000  0.78190000  1.0
  O  O101  1  0.94450000  0.08950000  0.75530000  1.0
  O  O102  1  0.43150000  0.78970000  0.88830000  1.0
  O  O103  1  0.53140000  0.89000000  0.77000000  1.0
  O  O104  1  0.15900000  0.60910000  0.74270000  1.0
  O  O105  1  0.61640000  0.90240000  0.53600000  1.0
  O  O106  1  0.34020000  0.39260000  0.70000000  1.0
  O  O107  1  0.36390000  0.52670000  0.81350000  1.0
  O  O108  1  0.40740000  0.10210000  0.55450000  1.0
  O  O109  1  0.99840000  0.78720000  0.62620000  1.0
  O  O110  1  0.16500000  0.67400000  0.43420000  1.0
  O  O111  1  0.63420000  0.06370000  0.21810000  1.0
  O  O112  1  0.78930000  0.91050000  0.24470000  1.0
  O  O113  1  0.10950000  0.21030000  0.11170000  1.0
  O  O114  1  0.19140000  0.11000000  0.23000000  1.0
  O  O115  1  0.51080000  0.39090000  0.25730000  1.0
  O  O116  1  0.05480000  0.09760000  0.46400000  1.0
  O  O117  1  0.43280000  0.60740000  0.30000000  1.0
  O  O118  1  0.70410000  0.47330000  0.18650000  1.0
  O  O119  1  0.06400000  0.89790000  0.44550000  1.0
  O  O120  1  0.41180000  0.21280000  0.37380000  1.0
  O  O121  1  0.27320000  0.32600000  0.56580000  1.0
  O  O122  1  0.69790000  0.21810000  0.93630000  1.0
  O  O123  1  0.69980000  0.24470000  0.08950000  1.0
  O  O124  1  0.31980000  0.11170000  0.78970000  1.0
  O  O125  1  0.30140000  0.23000000  0.89000000  1.0
  O  O126  1  0.90170000  0.25730000  0.60910000  1.0
  O  O127  1  0.15240000  0.46400000  0.90240000  1.0
  O  O128  1  0.04020000  0.30000000  0.39260000  1.0
  O  O129  1  0.17740000  0.18650000  0.52670000  1.0
  O  O130  1  0.96190000  0.44550000  0.10210000  1.0
  O  O131  1  0.62460000  0.37380000  0.78720000  1.0
  O  O132  1  0.59920000  0.56580000  0.67400000  1.0
  O  O133  1  0.85230000  0.78190000  0.06370000  1.0
  O  O134  1  0.03400000  0.75530000  0.91050000  1.0
  O  O135  1  0.22120000  0.88830000  0.21030000  1.0
  O  O136  1  0.42140000  0.77000000  0.11000000  1.0
  O  O137  1  0.76810000  0.74270000  0.39090000  1.0
  O  O138  1  0.51880000  0.53600000  0.09760000  1.0
  O  O139  1  0.73280000  0.70000000  0.60740000  1.0
  O  O140  1  0.89060000  0.81350000  0.47330000  1.0
  O  O141  1  0.50950000  0.55450000  0.89790000  1.0
  O  O142  1  0.78560000  0.62620000  0.21280000  1.0
  O  O143  1  0.83900000  0.43420000  0.32600000  1.0
  O  O144  1  0.36170000  0.50000000  0.50000000  1.0
  O  O145  1  0.86170000  0.50000000  0.50000000  1.0
