# generated using pymatgen
data_CdH14(C13O2)2
_symmetry_space_group_name_H-M   'P 1'
_cell_length_a   14.30600000
_cell_length_b   19.50900000
_cell_length_c   36.48200000
_cell_angle_alpha   90.00000000
_cell_angle_beta   99.62900000
_cell_angle_gamma   90.00000000
_symmetry_Int_Tables_number   1
_chemical_formula_structural   CdH14(C13O2)2
_chemical_formula_sum   'Cd12 H168 C312 O48'
_cell_volume   10038.52261037
_cell_formula_units_Z   12
loop_
 _symmetry_equiv_pos_site_id
 _symmetry_equiv_pos_as_xyz
  1  'x, y, z'
loop_
 _atom_site_type_symbol
 _atom_site_label
 _atom_site_symmetry_multiplicity
 _atom_site_fract_x
 _atom_site_fract_y
 _atom_site_fract_z
 _atom_site_occupancy
  Cd  Cd0  1  0.68217000  0.98032000  0.69507000  1.0
  Cd  Cd1  1  0.44687000  0.00011000  0.66267000  1.0
  Cd  Cd2  1  0.18127000  0.44562000  0.16345000  1.0
  Cd  Cd3  1  0.68217000  0.51968000  0.19507000  1.0
  Cd  Cd4  1  0.44687000  0.49989000  0.16267000  1.0
  Cd  Cd5  1  0.18127000  0.05438000  0.66345000  1.0
  Cd  Cd6  1  0.31783000  0.48032000  0.80493000  1.0
  Cd  Cd7  1  0.55313000  0.50011000  0.83733000  1.0
  Cd  Cd8  1  0.81873000  0.94562000  0.33655000  1.0
  Cd  Cd9  1  0.31783000  0.01968000  0.30493000  1.0
  Cd  Cd10  1  0.55313000  0.99989000  0.33733000  1.0
  Cd  Cd11  1  0.81873000  0.55438000  0.83655000  1.0
  H  H12  1  0.69560000  0.12690000  0.58880000  1.0
  H  H13  1  0.50620000  0.30140000  0.62510000  1.0
  H  H14  1  0.52400000  0.20010000  0.65680000  1.0
  H  H15  1  0.55550000  0.37800000  0.57650000  1.0
  H  H16  1  0.71410000  0.30070000  0.50400000  1.0
  H  H17  1  0.72640000  0.19770000  0.53520000  1.0
  H  H18  1  0.48720000  0.86550000  0.56720000  1.0
  H  H19  1  0.48740000  0.77860000  0.52520000  1.0
  H  H20  1  0.69180000  0.77300000  0.64040000  1.0
  H  H21  1  0.55110000  0.66430000  0.50910000  1.0
  H  H22  1  0.75220000  0.56960000  0.58330000  1.0
  H  H23  1  0.75680000  0.65940000  0.62360000  1.0
  H  H24  1  0.46450000  0.43860000  0.28930000  1.0
  H  H25  1  0.65840000  0.61510000  0.34670000  1.0
  H  H26  1  0.61980000  0.60800000  0.28190000  1.0
  H  H27  1  0.45460000  0.39120000  0.35160000  1.0
  H  H28  1  0.49540000  0.39660000  0.41570000  1.0
  H  H29  1  0.64560000  0.57090000  0.40950000  1.0
  H  H30  1  0.65700000  0.47730000  0.56420000  1.0
  H  H31  1  0.60550000  0.58650000  0.46870000  1.0
  H  H32  1  0.60750000  0.37900000  0.46550000  1.0
  H  H33  1  0.38060000  0.36400000  0.05300000  1.0
  H  H34  1  0.32820000  0.27070000  0.01500000  1.0
  H  H35  1  0.25250000  0.28960000  0.13510000  1.0
  H  H36  1  0.16360000  0.17930000  0.12550000  1.0
  H  H37  1  0.11420000  0.08570000  0.08850000  1.0
  H  H38  1  0.23640000  0.16220000  0.00590000  1.0
  H  H39  1  0.12820000  0.63340000  0.08800000  1.0
  H  H40  1  0.35920000  0.80100000  0.12210000  1.0
  H  H41  1  0.37410000  0.69460000  0.15020000  1.0
  H  H42  1  0.04110000  0.71030000  0.04040000  1.0
  H  H43  1  0.02980000  0.81390000  0.00930000  1.0
  H  H44  1  0.26800000  0.88120000  0.07570000  1.0
  H  H45  1  0.78020000  0.10120000  0.80980000  1.0
  H  H46  1  0.86440000  0.11830000  0.86880000  1.0
  H  H47  1  0.93700000  0.93130000  0.79700000  1.0
  H  H48  1  0.98950000  0.07840000  0.92090000  1.0
  H  H49  1  0.13510000  0.90520000  0.90930000  1.0
  H  H50  1  0.06080000  0.89520000  0.84810000  1.0
  H  H51  1  0.17730000  0.98660000  0.06570000  1.0
  H  H52  1  0.09550000  0.88890000  0.96820000  1.0
  H  H53  1  0.11360000  0.09450000  0.97080000  1.0
  H  H54  1  0.69560000  0.37310000  0.08880000  1.0
  H  H55  1  0.50620000  0.19860000  0.12510000  1.0
  H  H56  1  0.52400000  0.29990000  0.15680000  1.0
  H  H57  1  0.55550000  0.12200000  0.07650000  1.0
  H  H58  1  0.71410000  0.19930000  0.00400000  1.0
  H  H59  1  0.72640000  0.30230000  0.03520000  1.0
  H  H60  1  0.48720000  0.63450000  0.06720000  1.0
  H  H61  1  0.48740000  0.72140000  0.02520000  1.0
  H  H62  1  0.69180000  0.72700000  0.14040000  1.0
  H  H63  1  0.55110000  0.83570000  0.00910000  1.0
  H  H64  1  0.75220000  0.93040000  0.08330000  1.0
  H  H65  1  0.75680000  0.84060000  0.12360000  1.0
  H  H66  1  0.46450000  0.06140000  0.78930000  1.0
  H  H67  1  0.65840000  0.88490000  0.84670000  1.0
  H  H68  1  0.61980000  0.89200000  0.78190000  1.0
  H  H69  1  0.45460000  0.10880000  0.85160000  1.0
  H  H70  1  0.49540000  0.10340000  0.91570000  1.0
  H  H71  1  0.64560000  0.92910000  0.90950000  1.0
  H  H72  1  0.65700000  0.02270000  0.06420000  1.0
  H  H73  1  0.60550000  0.91350000  0.96870000  1.0
  H  H74  1  0.60750000  0.12100000  0.96550000  1.0
  H  H75  1  0.38060000  0.13600000  0.55300000  1.0
  H  H76  1  0.32820000  0.22930000  0.51500000  1.0
  H  H77  1  0.25250000  0.21040000  0.63510000  1.0
  H  H78  1  0.16360000  0.32070000  0.62550000  1.0
  H  H79  1  0.11420000  0.41430000  0.58850000  1.0
  H  H80  1  0.23640000  0.33780000  0.50590000  1.0
  H  H81  1  0.12820000  0.86660000  0.58800000  1.0
  H  H82  1  0.35920000  0.69900000  0.62210000  1.0
  H  H83  1  0.37410000  0.80540000  0.65020000  1.0
  H  H84  1  0.04110000  0.78970000  0.54040000  1.0
  H  H85  1  0.02980000  0.68610000  0.50930000  1.0
  H  H86  1  0.26800000  0.61880000  0.57570000  1.0
  H  H87  1  0.78020000  0.39880000  0.30980000  1.0
  H  H88  1  0.86440000  0.38170000  0.36880000  1.0
  H  H89  1  0.93700000  0.56870000  0.29700000  1.0
  H  H90  1  0.98950000  0.42160000  0.42090000  1.0
  H  H91  1  0.13510000  0.59480000  0.40930000  1.0
  H  H92  1  0.06080000  0.60480000  0.34810000  1.0
  H  H93  1  0.17730000  0.51340000  0.56570000  1.0
  H  H94  1  0.09550000  0.61110000  0.46820000  1.0
  H  H95  1  0.11360000  0.40550000  0.47080000  1.0
  H  H96  1  0.30440000  0.62690000  0.91120000  1.0
  H  H97  1  0.49380000  0.80140000  0.87490000  1.0
  H  H98  1  0.47600000  0.70010000  0.84320000  1.0
  H  H99  1  0.44450000  0.87800000  0.92350000  1.0
  H  H100  1  0.28590000  0.80070000  0.99600000  1.0
  H  H101  1  0.27360000  0.69770000  0.96480000  1.0
  H  H102  1  0.51280000  0.36550000  0.93280000  1.0
  H  H103  1  0.51260000  0.27860000  0.97480000  1.0
  H  H104  1  0.30820000  0.27300000  0.85960000  1.0
  H  H105  1  0.44890000  0.16430000  0.99090000  1.0
  H  H106  1  0.24780000  0.06960000  0.91670000  1.0
  H  H107  1  0.24320000  0.15940000  0.87640000  1.0
  H  H108  1  0.53550000  0.93860000  0.21070000  1.0
  H  H109  1  0.34160000  0.11510000  0.15330000  1.0
  H  H110  1  0.38020000  0.10800000  0.21810000  1.0
  H  H111  1  0.54540000  0.89120000  0.14840000  1.0
  H  H112  1  0.50460000  0.89660000  0.08430000  1.0
  H  H113  1  0.35440000  0.07090000  0.09050000  1.0
  H  H114  1  0.34300000  0.97730000  0.93580000  1.0
  H  H115  1  0.39450000  0.08650000  0.03130000  1.0
  H  H116  1  0.39250000  0.87900000  0.03450000  1.0
  H  H117  1  0.61940000  0.86400000  0.44700000  1.0
  H  H118  1  0.67180000  0.77070000  0.48500000  1.0
  H  H119  1  0.74750000  0.78960000  0.36490000  1.0
  H  H120  1  0.83640000  0.67930000  0.37450000  1.0
  H  H121  1  0.88580000  0.58570000  0.41150000  1.0
  H  H122  1  0.76360000  0.66220000  0.49410000  1.0
  H  H123  1  0.87180000  0.13340000  0.41200000  1.0
  H  H124  1  0.64080000  0.30100000  0.37790000  1.0
  H  H125  1  0.62590000  0.19460000  0.34980000  1.0
  H  H126  1  0.95890000  0.21030000  0.45960000  1.0
  H  H127  1  0.97020000  0.31390000  0.49070000  1.0
  H  H128  1  0.73200000  0.38120000  0.42430000  1.0
  H  H129  1  0.21980000  0.60120000  0.69020000  1.0
  H  H130  1  0.13560000  0.61830000  0.63120000  1.0
  H  H131  1  0.06300000  0.43130000  0.70300000  1.0
  H  H132  1  0.01050000  0.57840000  0.57910000  1.0
  H  H133  1  0.86490000  0.40520000  0.59070000  1.0
  H  H134  1  0.93920000  0.39520000  0.65190000  1.0
  H  H135  1  0.82270000  0.48660000  0.43430000  1.0
  H  H136  1  0.90450000  0.38890000  0.53180000  1.0
  H  H137  1  0.88640000  0.59450000  0.52920000  1.0
  H  H138  1  0.30440000  0.87310000  0.41120000  1.0
  H  H139  1  0.49380000  0.69860000  0.37490000  1.0
  H  H140  1  0.47600000  0.79990000  0.34320000  1.0
  H  H141  1  0.44450000  0.62200000  0.42350000  1.0
  H  H142  1  0.28590000  0.69930000  0.49600000  1.0
  H  H143  1  0.27360000  0.80230000  0.46480000  1.0
  H  H144  1  0.51280000  0.13450000  0.43280000  1.0
  H  H145  1  0.51260000  0.22140000  0.47480000  1.0
  H  H146  1  0.30820000  0.22700000  0.35960000  1.0
  H  H147  1  0.44890000  0.33570000  0.49090000  1.0
  H  H148  1  0.24780000  0.43040000  0.41670000  1.0
  H  H149  1  0.24320000  0.34060000  0.37640000  1.0
  H  H150  1  0.53550000  0.56140000  0.71070000  1.0
  H  H151  1  0.34160000  0.38490000  0.65330000  1.0
  H  H152  1  0.38020000  0.39200000  0.71810000  1.0
  H  H153  1  0.54540000  0.60880000  0.64840000  1.0
  H  H154  1  0.50460000  0.60340000  0.58430000  1.0
  H  H155  1  0.35440000  0.42910000  0.59050000  1.0
  H  H156  1  0.34300000  0.52270000  0.43580000  1.0
  H  H157  1  0.39450000  0.41350000  0.53130000  1.0
  H  H158  1  0.39250000  0.62100000  0.53450000  1.0
  H  H159  1  0.61940000  0.63600000  0.94700000  1.0
  H  H160  1  0.67180000  0.72930000  0.98500000  1.0
  H  H161  1  0.74750000  0.71040000  0.86490000  1.0
  H  H162  1  0.83640000  0.82070000  0.87450000  1.0
  H  H163  1  0.88580000  0.91430000  0.91150000  1.0
  H  H164  1  0.76360000  0.83780000  0.99410000  1.0
  H  H165  1  0.87180000  0.36660000  0.91200000  1.0
  H  H166  1  0.64080000  0.19900000  0.87790000  1.0
  H  H167  1  0.62590000  0.30540000  0.84980000  1.0
  H  H168  1  0.95890000  0.28970000  0.95960000  1.0
  H  H169  1  0.97020000  0.18610000  0.99070000  1.0
  H  H170  1  0.73200000  0.11880000  0.92430000  1.0
  H  H171  1  0.21980000  0.89880000  0.19020000  1.0
  H  H172  1  0.13560000  0.88170000  0.13120000  1.0
  H  H173  1  0.06300000  0.06870000  0.20300000  1.0
  H  H174  1  0.01050000  0.92160000  0.07910000  1.0
  H  H175  1  0.86490000  0.09480000  0.09070000  1.0
  H  H176  1  0.93920000  0.10480000  0.15190000  1.0
  H  H177  1  0.82270000  0.01340000  0.93430000  1.0
  H  H178  1  0.90450000  0.11110000  0.03180000  1.0
  H  H179  1  0.88640000  0.90550000  0.02920000  1.0
  C  C180  1  0.63360000  0.09060000  0.65010000  1.0
  C  C181  1  0.61600000  0.15400000  0.62636000  1.0
  C  C182  1  0.65860000  0.16320000  0.59619000  1.0
  C  C183  1  0.65010000  0.22490000  0.57530000  1.0
  C  C184  1  0.59580000  0.27850000  0.58688000  1.0
  C  C185  1  0.54620000  0.26680000  0.61788000  1.0
  C  C186  1  0.55670000  0.20710000  0.63649000  1.0
  C  C187  1  0.59040000  0.34140000  0.56820000  1.0
  C  C188  1  0.63510000  0.35110000  0.53792000  1.0
  C  C189  1  0.68510000  0.29540000  0.52548000  1.0
  C  C190  1  0.69220000  0.23430000  0.54387000  1.0
  C  C191  1  0.59210000  0.88640000  0.63509000  1.0
  C  C192  1  0.59080000  0.82790000  0.60869000  1.0
  C  C193  1  0.52930000  0.82810000  0.57331000  1.0
  C  C194  1  0.52930000  0.77680000  0.54828000  1.0
  C  C195  1  0.59160000  0.72050000  0.55655000  1.0
  C  C196  1  0.65370000  0.71830000  0.59173000  1.0
  C  C197  1  0.65070000  0.77380000  0.61703000  1.0
  C  C198  1  0.59100000  0.66340000  0.53269000  1.0
  C  C199  1  0.64610000  0.60640000  0.54251000  1.0
  C  C200  1  0.71070000  0.60730000  0.57702000  1.0
  C  C201  1  0.71400000  0.66040000  0.60068000  1.0
  C  C202  1  0.51140000  0.51820000  0.23809000  1.0
  C  C203  1  0.53670000  0.52300000  0.28072000  1.0
  C  C204  1  0.50330000  0.47420000  0.30122000  1.0
  C  C205  1  0.52620000  0.47570000  0.34103000  1.0
  C  C206  1  0.58460000  0.53010000  0.35729000  1.0
  C  C207  1  0.61900000  0.57910000  0.33546000  1.0
  C  C208  1  0.59560000  0.57510000  0.29706000  1.0
  C  C209  1  0.49390000  0.42740000  0.36270000  1.0
  C  C210  1  0.51850000  0.43090000  0.40101000  1.0
  C  C211  1  0.57610000  0.48310000  0.41898000  1.0
  C  C212  1  0.60850000  0.53410000  0.39792000  1.0
  C  C213  1  0.63020000  0.41910000  0.51823000  1.0
  C  C214  1  0.64260000  0.47910000  0.53785000  1.0
  C  C215  1  0.63450000  0.54340000  0.52002000  1.0
  C  C216  1  0.61250000  0.54370000  0.48136000  1.0
  C  C217  1  0.60030000  0.48310000  0.46037000  1.0
  C  C218  1  0.61190000  0.42070000  0.47914000  1.0
  C  C219  1  0.35090000  0.39790000  0.12039000  1.0
  C  C220  1  0.31770000  0.33620000  0.09764000  1.0
  C  C221  1  0.34250000  0.32970000  0.06168000  1.0
  C  C222  1  0.31200000  0.27420000  0.03915000  1.0
  C  C223  1  0.25650000  0.22280000  0.05239000  1.0
  C  C224  1  0.23580000  0.22810000  0.08878000  1.0
  C  C225  1  0.26720000  0.28590000  0.11069000  1.0
  C  C226  1  0.18040000  0.17590000  0.10143000  1.0
  C  C227  1  0.15050000  0.12050000  0.07935000  1.0
  C  C228  1  0.17260000  0.11440000  0.04368000  1.0
  C  C229  1  0.22330000  0.16540000  0.03050000  1.0
  C  C230  1  0.25680000  0.58660000  0.14205000  1.0
  C  C231  1  0.25100000  0.65410000  0.12250000  1.0
  C  C232  1  0.17480000  0.66790000  0.09463000  1.0
  C  C233  1  0.16420000  0.73060000  0.07594000  1.0
  C  C234  1  0.23270000  0.78180000  0.08640000  1.0
  C  C235  1  0.31210000  0.76700000  0.11491000  1.0
  C  C236  1  0.32030000  0.70420000  0.13181000  1.0
  C  C237  1  0.08820000  0.74430000  0.04735000  1.0
  C  C238  1  0.08090000  0.80640000  0.02919000  1.0
  C  C239  1  0.14820000  0.85950000  0.03948000  1.0
  C  C240  1  0.22260000  0.84630000  0.06808000  1.0
  C  C241  1  0.79110000  0.00550000  0.75952000  1.0
  C  C242  1  0.84910000  0.01490000  0.79717000  1.0
  C  C243  1  0.82930000  0.07010000  0.81936000  1.0
  C  C244  1  0.87890000  0.08030000  0.85453000  1.0
  C  C245  1  0.95240000  0.03360000  0.86958000  1.0
  C  C246  1  0.97400000  0.97790000  0.84720000  1.0
  C  C247  1  0.92270000  0.96880000  0.81169000  1.0
  C  C248  1  0.00130000  0.03980000  0.90656000  1.0
  C  C249  1  0.06460000  0.99190000  0.92188000  1.0
  C  C250  1  0.08820000  0.93770000  0.89929000  1.0
  C  C251  1  0.04360000  0.93170000  0.86289000  1.0
  C  C252  1  0.14880000  0.05010000  0.02149000  1.0
  C  C253  1  0.15790000  0.98770000  0.03948000  1.0
  C  C254  1  0.13910000  0.92610000  0.02019000  1.0
  C  C255  1  0.10950000  0.93020000  0.98182000  1.0
  C  C256  1  0.09960000  0.99210000  0.96263000  1.0
  C  C257  1  0.11970000  0.05150000  0.98319000  1.0
  C  C258  1  0.63360000  0.40940000  0.15010000  1.0
  C  C259  1  0.61600000  0.34600000  0.12636000  1.0
  C  C260  1  0.65860000  0.33680000  0.09619000  1.0
  C  C261  1  0.65010000  0.27510000  0.07530000  1.0
  C  C262  1  0.59580000  0.22150000  0.08688000  1.0
  C  C263  1  0.54620000  0.23320000  0.11788000  1.0
  C  C264  1  0.55670000  0.29290000  0.13649000  1.0
  C  C265  1  0.59040000  0.15860000  0.06820000  1.0
  C  C266  1  0.63510000  0.14890000  0.03792000  1.0
  C  C267  1  0.68510000  0.20460000  0.02548000  1.0
  C  C268  1  0.69220000  0.26570000  0.04387000  1.0
  C  C269  1  0.59210000  0.61360000  0.13509000  1.0
  C  C270  1  0.59080000  0.67210000  0.10869000  1.0
  C  C271  1  0.52930000  0.67190000  0.07331000  1.0
  C  C272  1  0.52930000  0.72320000  0.04828000  1.0
  C  C273  1  0.59160000  0.77950000  0.05655000  1.0
  C  C274  1  0.65370000  0.78170000  0.09173000  1.0
  C  C275  1  0.65070000  0.72620000  0.11703000  1.0
  C  C276  1  0.59100000  0.83660000  0.03269000  1.0
  C  C277  1  0.64610000  0.89360000  0.04251000  1.0
  C  C278  1  0.71070000  0.89270000  0.07702000  1.0
  C  C279  1  0.71400000  0.83960000  0.10068000  1.0
  C  C280  1  0.51140000  0.98180000  0.73809000  1.0
  C  C281  1  0.53670000  0.97700000  0.78072000  1.0
  C  C282  1  0.50330000  0.02580000  0.80122000  1.0
  C  C283  1  0.52620000  0.02430000  0.84103000  1.0
  C  C284  1  0.58460000  0.96990000  0.85729000  1.0
  C  C285  1  0.61900000  0.92090000  0.83546000  1.0
  C  C286  1  0.59560000  0.92490000  0.79706000  1.0
  C  C287  1  0.49390000  0.07260000  0.86270000  1.0
  C  C288  1  0.51850000  0.06910000  0.90101000  1.0
  C  C289  1  0.57610000  0.01690000  0.91898000  1.0
  C  C290  1  0.60850000  0.96590000  0.89792000  1.0
  C  C291  1  0.63020000  0.08090000  0.01823000  1.0
  C  C292  1  0.64260000  0.02090000  0.03785000  1.0
  C  C293  1  0.63450000  0.95660000  0.02002000  1.0
  C  C294  1  0.61250000  0.95630000  0.98136000  1.0
  C  C295  1  0.60030000  0.01690000  0.96037000  1.0
  C  C296  1  0.61190000  0.07930000  0.97914000  1.0
  C  C297  1  0.35090000  0.10210000  0.62039000  1.0
  C  C298  1  0.31770000  0.16380000  0.59764000  1.0
  C  C299  1  0.34250000  0.17030000  0.56168000  1.0
  C  C300  1  0.31200000  0.22580000  0.53915000  1.0
  C  C301  1  0.25650000  0.27720000  0.55239000  1.0
  C  C302  1  0.23580000  0.27190000  0.58878000  1.0
  C  C303  1  0.26720000  0.21410000  0.61069000  1.0
  C  C304  1  0.18040000  0.32410000  0.60143000  1.0
  C  C305  1  0.15050000  0.37950000  0.57935000  1.0
  C  C306  1  0.17260000  0.38560000  0.54368000  1.0
  C  C307  1  0.22330000  0.33460000  0.53050000  1.0
  C  C308  1  0.25680000  0.91340000  0.64205000  1.0
  C  C309  1  0.25100000  0.84590000  0.62250000  1.0
  C  C310  1  0.17480000  0.83210000  0.59463000  1.0
  C  C311  1  0.16420000  0.76940000  0.57594000  1.0
  C  C312  1  0.23270000  0.71820000  0.58640000  1.0
  C  C313  1  0.31210000  0.73300000  0.61491000  1.0
  C  C314  1  0.32030000  0.79580000  0.63181000  1.0
  C  C315  1  0.08820000  0.75570000  0.54735000  1.0
  C  C316  1  0.08090000  0.69360000  0.52919000  1.0
  C  C317  1  0.14820000  0.64050000  0.53948000  1.0
  C  C318  1  0.22260000  0.65370000  0.56808000  1.0
  C  C319  1  0.79110000  0.49450000  0.25952000  1.0
  C  C320  1  0.84910000  0.48510000  0.29717000  1.0
  C  C321  1  0.82930000  0.42990000  0.31936000  1.0
  C  C322  1  0.87890000  0.41970000  0.35453000  1.0
  C  C323  1  0.95240000  0.46640000  0.36958000  1.0
  C  C324  1  0.97400000  0.52210000  0.34720000  1.0
  C  C325  1  0.92270000  0.53120000  0.31169000  1.0
  C  C326  1  0.00130000  0.46020000  0.40656000  1.0
  C  C327  1  0.06460000  0.50810000  0.42188000  1.0
  C  C328  1  0.08820000  0.56230000  0.39929000  1.0
  C  C329  1  0.04360000  0.56830000  0.36289000  1.0
  C  C330  1  0.14880000  0.44990000  0.52149000  1.0
  C  C331  1  0.15790000  0.51230000  0.53948000  1.0
  C  C332  1  0.13910000  0.57390000  0.52019000  1.0
  C  C333  1  0.10950000  0.56980000  0.48182000  1.0
  C  C334  1  0.09960000  0.50790000  0.46263000  1.0
  C  C335  1  0.11970000  0.44850000  0.48319000  1.0
  C  C336  1  0.36640000  0.59060000  0.84990000  1.0
  C  C337  1  0.38400000  0.65400000  0.87364000  1.0
  C  C338  1  0.34140000  0.66320000  0.90381000  1.0
  C  C339  1  0.34990000  0.72490000  0.92470000  1.0
  C  C340  1  0.40420000  0.77850000  0.91312000  1.0
  C  C341  1  0.45380000  0.76680000  0.88212000  1.0
  C  C342  1  0.44330000  0.70710000  0.86351000  1.0
  C  C343  1  0.40960000  0.84140000  0.93180000  1.0
  C  C344  1  0.36490000  0.85110000  0.96208000  1.0
  C  C345  1  0.31490000  0.79540000  0.97452000  1.0
  C  C346  1  0.30780000  0.73430000  0.95613000  1.0
  C  C347  1  0.40790000  0.38640000  0.86491000  1.0
  C  C348  1  0.40920000  0.32790000  0.89131000  1.0
  C  C349  1  0.47070000  0.32810000  0.92669000  1.0
  C  C350  1  0.47070000  0.27680000  0.95172000  1.0
  C  C351  1  0.40840000  0.22050000  0.94345000  1.0
  C  C352  1  0.34630000  0.21830000  0.90827000  1.0
  C  C353  1  0.34930000  0.27380000  0.88297000  1.0
  C  C354  1  0.40900000  0.16340000  0.96731000  1.0
  C  C355  1  0.35390000  0.10640000  0.95749000  1.0
  C  C356  1  0.28930000  0.10730000  0.92298000  1.0
  C  C357  1  0.28600000  0.16040000  0.89932000  1.0
  C  C358  1  0.48860000  0.01820000  0.26191000  1.0
  C  C359  1  0.46330000  0.02300000  0.21928000  1.0
  C  C360  1  0.49670000  0.97420000  0.19878000  1.0
  C  C361  1  0.47380000  0.97570000  0.15897000  1.0
  C  C362  1  0.41540000  0.03010000  0.14271000  1.0
  C  C363  1  0.38100000  0.07910000  0.16454000  1.0
  C  C364  1  0.40440000  0.07510000  0.20294000  1.0
  C  C365  1  0.50610000  0.92740000  0.13730000  1.0
  C  C366  1  0.48150000  0.93090000  0.09899000  1.0
  C  C367  1  0.42390000  0.98310000  0.08102000  1.0
  C  C368  1  0.39150000  0.03410000  0.10208000  1.0
  C  C369  1  0.36980000  0.91910000  0.98177000  1.0
  C  C370  1  0.35740000  0.97910000  0.96215000  1.0
  C  C371  1  0.36550000  0.04340000  0.97998000  1.0
  C  C372  1  0.38750000  0.04370000  0.01864000  1.0
  C  C373  1  0.39970000  0.98310000  0.03963000  1.0
  C  C374  1  0.38810000  0.92070000  0.02086000  1.0
  C  C375  1  0.64910000  0.89790000  0.37961000  1.0
  C  C376  1  0.68230000  0.83620000  0.40236000  1.0
  C  C377  1  0.65750000  0.82970000  0.43832000  1.0
  C  C378  1  0.68800000  0.77420000  0.46085000  1.0
  C  C379  1  0.74350000  0.72280000  0.44761000  1.0
  C  C380  1  0.76420000  0.72810000  0.41122000  1.0
  C  C381  1  0.73280000  0.78590000  0.38931000  1.0
  C  C382  1  0.81960000  0.67590000  0.39857000  1.0
  C  C383  1  0.84950000  0.62050000  0.42065000  1.0
  C  C384  1  0.82740000  0.61440000  0.45632000  1.0
  C  C385  1  0.77670000  0.66540000  0.46950000  1.0
  C  C386  1  0.74320000  0.08660000  0.35795000  1.0
  C  C387  1  0.74900000  0.15410000  0.37750000  1.0
  C  C388  1  0.82520000  0.16790000  0.40537000  1.0
  C  C389  1  0.83580000  0.23060000  0.42406000  1.0
  C  C390  1  0.76730000  0.28180000  0.41360000  1.0
  C  C391  1  0.68790000  0.26700000  0.38509000  1.0
  C  C392  1  0.67970000  0.20420000  0.36819000  1.0
  C  C393  1  0.91180000  0.24430000  0.45265000  1.0
  C  C394  1  0.91910000  0.30640000  0.47081000  1.0
  C  C395  1  0.85180000  0.35950000  0.46052000  1.0
  C  C396  1  0.77740000  0.34630000  0.43192000  1.0
  C  C397  1  0.20890000  0.50550000  0.74048000  1.0
  C  C398  1  0.15090000  0.51490000  0.70283000  1.0
  C  C399  1  0.17070000  0.57010000  0.68064000  1.0
  C  C400  1  0.12110000  0.58030000  0.64547000  1.0
  C  C401  1  0.04760000  0.53360000  0.63042000  1.0
  C  C402  1  0.02600000  0.47790000  0.65280000  1.0
  C  C403  1  0.07730000  0.46880000  0.68831000  1.0
  C  C404  1  0.99870000  0.53980000  0.59344000  1.0
  C  C405  1  0.93540000  0.49190000  0.57812000  1.0
  C  C406  1  0.91180000  0.43770000  0.60071000  1.0
  C  C407  1  0.95640000  0.43170000  0.63711000  1.0
  C  C408  1  0.85120000  0.55010000  0.47851000  1.0
  C  C409  1  0.84210000  0.48770000  0.46052000  1.0
  C  C410  1  0.86090000  0.42610000  0.47981000  1.0
  C  C411  1  0.89050000  0.43020000  0.51818000  1.0
  C  C412  1  0.90040000  0.49210000  0.53737000  1.0
  C  C413  1  0.88030000  0.55150000  0.51681000  1.0
  C  C414  1  0.36640000  0.90940000  0.34990000  1.0
  C  C415  1  0.38400000  0.84600000  0.37364000  1.0
  C  C416  1  0.34140000  0.83680000  0.40381000  1.0
  C  C417  1  0.34990000  0.77510000  0.42470000  1.0
  C  C418  1  0.40420000  0.72150000  0.41312000  1.0
  C  C419  1  0.45380000  0.73320000  0.38212000  1.0
  C  C420  1  0.44330000  0.79290000  0.36351000  1.0
  C  C421  1  0.40960000  0.65860000  0.43180000  1.0
  C  C422  1  0.36490000  0.64890000  0.46208000  1.0
  C  C423  1  0.31490000  0.70460000  0.47452000  1.0
  C  C424  1  0.30780000  0.76570000  0.45613000  1.0
  C  C425  1  0.40790000  0.11360000  0.36491000  1.0
  C  C426  1  0.40920000  0.17210000  0.39131000  1.0
  C  C427  1  0.47070000  0.17190000  0.42669000  1.0
  C  C428  1  0.47070000  0.22320000  0.45172000  1.0
  C  C429  1  0.40840000  0.27950000  0.44345000  1.0
  C  C430  1  0.34630000  0.28170000  0.40827000  1.0
  C  C431  1  0.34930000  0.22620000  0.38297000  1.0
  C  C432  1  0.40900000  0.33660000  0.46731000  1.0
  C  C433  1  0.35390000  0.39360000  0.45749000  1.0
  C  C434  1  0.28930000  0.39270000  0.42298000  1.0
  C  C435  1  0.28600000  0.33960000  0.39932000  1.0
  C  C436  1  0.48860000  0.48180000  0.76191000  1.0
  C  C437  1  0.46330000  0.47700000  0.71928000  1.0
  C  C438  1  0.49670000  0.52580000  0.69878000  1.0
  C  C439  1  0.47380000  0.52430000  0.65897000  1.0
  C  C440  1  0.41540000  0.46990000  0.64271000  1.0
  C  C441  1  0.38100000  0.42090000  0.66454000  1.0
  C  C442  1  0.40440000  0.42490000  0.70294000  1.0
  C  C443  1  0.50610000  0.57260000  0.63730000  1.0
  C  C444  1  0.48150000  0.56910000  0.59899000  1.0
  C  C445  1  0.42390000  0.51690000  0.58102000  1.0
  C  C446  1  0.39150000  0.46590000  0.60208000  1.0
  C  C447  1  0.36980000  0.58090000  0.48177000  1.0
  C  C448  1  0.35740000  0.52090000  0.46215000  1.0
  C  C449  1  0.36550000  0.45660000  0.47998000  1.0
  C  C450  1  0.38750000  0.45630000  0.51864000  1.0
  C  C451  1  0.39970000  0.51690000  0.53963000  1.0
  C  C452  1  0.38810000  0.57930000  0.52086000  1.0
  C  C453  1  0.64910000  0.60210000  0.87961000  1.0
  C  C454  1  0.68230000  0.66380000  0.90236000  1.0
  C  C455  1  0.65750000  0.67030000  0.93832000  1.0
  C  C456  1  0.68800000  0.72580000  0.96085000  1.0
  C  C457  1  0.74350000  0.77720000  0.94761000  1.0
  C  C458  1  0.76420000  0.77190000  0.91122000  1.0
  C  C459  1  0.73280000  0.71410000  0.88931000  1.0
  C  C460  1  0.81960000  0.82410000  0.89857000  1.0
  C  C461  1  0.84950000  0.87950000  0.92065000  1.0
  C  C462  1  0.82740000  0.88560000  0.95632000  1.0
  C  C463  1  0.77670000  0.83460000  0.96950000  1.0
  C  C464  1  0.74320000  0.41340000  0.85795000  1.0
  C  C465  1  0.74900000  0.34590000  0.87750000  1.0
  C  C466  1  0.82520000  0.33210000  0.90537000  1.0
  C  C467  1  0.83580000  0.26940000  0.92406000  1.0
  C  C468  1  0.76730000  0.21820000  0.91360000  1.0
  C  C469  1  0.68790000  0.23300000  0.88509000  1.0
  C  C470  1  0.67970000  0.29580000  0.86819000  1.0
  C  C471  1  0.91180000  0.25570000  0.95265000  1.0
  C  C472  1  0.91910000  0.19360000  0.97081000  1.0
  C  C473  1  0.85180000  0.14050000  0.96052000  1.0
  C  C474  1  0.77740000  0.15370000  0.93192000  1.0
  C  C475  1  0.20890000  0.99450000  0.24048000  1.0
  C  C476  1  0.15090000  0.98510000  0.20283000  1.0
  C  C477  1  0.17070000  0.92990000  0.18064000  1.0
  C  C478  1  0.12110000  0.91970000  0.14547000  1.0
  C  C479  1  0.04760000  0.96640000  0.13042000  1.0
  C  C480  1  0.02600000  0.02210000  0.15280000  1.0
  C  C481  1  0.07730000  0.03120000  0.18831000  1.0
  C  C482  1  0.99870000  0.96020000  0.09344000  1.0
  C  C483  1  0.93540000  0.00810000  0.07812000  1.0
  C  C484  1  0.91180000  0.06230000  0.10071000  1.0
  C  C485  1  0.95640000  0.06830000  0.13711000  1.0
  C  C486  1  0.85120000  0.94990000  0.97851000  1.0
  C  C487  1  0.84210000  0.01230000  0.96052000  1.0
  C  C488  1  0.86090000  0.07390000  0.97981000  1.0
  C  C489  1  0.89050000  0.06980000  0.01818000  1.0
  C  C490  1  0.90040000  0.00790000  0.03737000  1.0
  C  C491  1  0.88030000  0.94850000  0.01681000  1.0
  O  O492  1  0.57760000  0.07580000  0.67193000  1.0
  O  O493  1  0.70720000  0.05500000  0.64820000  1.0
  O  O494  1  0.66360000  0.88810000  0.66116000  1.0
  O  O495  1  0.52620000  0.92920000  0.62990000  1.0
  O  O496  1  0.55320000  0.55640000  0.21865000  1.0
  O  O497  1  0.44660000  0.47570000  0.22436000  1.0
  O  O498  1  0.32560000  0.40605000  0.15174000  1.0
  O  O499  1  0.40510000  0.43971000  0.10815000  1.0
  O  O500  1  0.33333333  0.57710000  0.16572000  1.0
  O  O501  1  0.19010000  0.54480000  0.13524000  1.0
  O  O502  1  0.80950000  0.95330000  0.73981000  1.0
  O  O503  1  0.72790000  0.04700000  0.74819000  1.0
  O  O504  1  0.57760000  0.42420000  0.17193000  1.0
  O  O505  1  0.70720000  0.44500000  0.14820000  1.0
  O  O506  1  0.66360000  0.61190000  0.16116000  1.0
  O  O507  1  0.52620000  0.57080000  0.12990000  1.0
  O  O508  1  0.55320000  0.94360000  0.71865000  1.0
  O  O509  1  0.44660000  0.02430000  0.72436000  1.0
  O  O510  1  0.32560000  0.09395000  0.65174000  1.0
  O  O511  1  0.40510000  0.06029000  0.60815000  1.0
  O  O512  1  0.33333333  0.92290000  0.66572000  1.0
  O  O513  1  0.19010000  0.95520000  0.63524000  1.0
  O  O514  1  0.80950000  0.54670000  0.23981000  1.0
  O  O515  1  0.72790000  0.45300000  0.24819000  1.0
  O  O516  1  0.42240000  0.57580000  0.82807000  1.0
  O  O517  1  0.29280000  0.55500000  0.85180000  1.0
  O  O518  1  0.33640000  0.38810000  0.83884000  1.0
  O  O519  1  0.47380000  0.42920000  0.87010000  1.0
  O  O520  1  0.44680000  0.05640000  0.28135000  1.0
  O  O521  1  0.55340000  0.97570000  0.27564000  1.0
  O  O522  1  0.67440000  0.90605000  0.34826000  1.0
  O  O523  1  0.59490000  0.93971000  0.39185000  1.0
  O  O524  1  0.66666667  0.07710000  0.33428000  1.0
  O  O525  1  0.80990000  0.04480000  0.36476000  1.0
  O  O526  1  0.19050000  0.45330000  0.76019000  1.0
  O  O527  1  0.27210000  0.54700000  0.75181000  1.0
  O  O528  1  0.42240000  0.92420000  0.32807000  1.0
  O  O529  1  0.29280000  0.94500000  0.35180000  1.0
  O  O530  1  0.33640000  0.11190000  0.33884000  1.0
  O  O531  1  0.47380000  0.07080000  0.37010000  1.0
  O  O532  1  0.44680000  0.44360000  0.78135000  1.0
  O  O533  1  0.55340000  0.52430000  0.77564000  1.0
  O  O534  1  0.67440000  0.59395000  0.84826000  1.0
  O  O535  1  0.59490000  0.56029000  0.89185000  1.0
  O  O536  1  0.66666667  0.42290000  0.83428000  1.0
  O  O537  1  0.80990000  0.45520000  0.86476000  1.0
  O  O538  1  0.19050000  0.04670000  0.26019000  1.0
  O  O539  1  0.27210000  0.95300000  0.25181000  1.0
