# generated using pymatgen
data_Cd6H7(C4N3)5
_symmetry_space_group_name_H-M   'P 1'
_cell_length_a   8.89650000
_cell_length_b   11.71930000
_cell_length_c   52.41400000
_cell_angle_alpha   90.00000000
_cell_angle_beta   97.73400000
_cell_angle_gamma   90.00000000
_symmetry_Int_Tables_number   1
_chemical_formula_structural   Cd6H7(C4N3)5
_chemical_formula_sum   'Cd24 H28 C80 N60'
_cell_volume   5415.01331415
_cell_formula_units_Z   4
loop_
 _symmetry_equiv_pos_site_id
 _symmetry_equiv_pos_as_xyz
  1  'x, y, z'
loop_
 _atom_site_type_symbol
 _atom_site_label
 _atom_site_symmetry_multiplicity
 _atom_site_fract_x
 _atom_site_fract_y
 _atom_site_fract_z
 _atom_site_occupancy
  Cd  Cd0  1  0.32424000  0.11561000  0.06917000  1.0
  Cd  Cd1  1  0.36123000  0.15717000  0.17937000  1.0
  Cd  Cd2  1  0.88661000  0.44135000  0.18323000  1.0
  Cd  Cd3  1  0.83484000  0.41036000  0.07268000  1.0
  Cd  Cd4  1  0.87510000  0.90377000  0.21059000  1.0
  Cd  Cd5  1  0.78286000  0.86560000  0.03895000  1.0
  Cd  Cd6  1  0.67576000  0.61561000  0.43083000  1.0
  Cd  Cd7  1  0.63877000  0.65717000  0.32063000  1.0
  Cd  Cd8  1  0.11339000  0.94135000  0.31677000  1.0
  Cd  Cd9  1  0.16516000  0.91036000  0.42732000  1.0
  Cd  Cd10  1  0.12490000  0.40377000  0.28941000  1.0
  Cd  Cd11  1  0.21714000  0.36560000  0.46105000  1.0
  Cd  Cd12  1  0.67576000  0.88439000  0.93083000  1.0
  Cd  Cd13  1  0.63877000  0.84283000  0.82063000  1.0
  Cd  Cd14  1  0.11339000  0.55865000  0.81677000  1.0
  Cd  Cd15  1  0.16516000  0.58964000  0.92732000  1.0
  Cd  Cd16  1  0.12490000  0.09623000  0.78941000  1.0
  Cd  Cd17  1  0.21714000  0.13440000  0.96105000  1.0
  Cd  Cd18  1  0.32424000  0.38439000  0.56917000  1.0
  Cd  Cd19  1  0.36123000  0.34283000  0.67937000  1.0
  Cd  Cd20  1  0.88661000  0.05865000  0.68323000  1.0
  Cd  Cd21  1  0.83484000  0.08964000  0.57268000  1.0
  Cd  Cd22  1  0.87510000  0.59623000  0.71059000  1.0
  Cd  Cd23  1  0.78286000  0.63440000  0.53895000  1.0
  H  H24  1  0.26420000  0.20300000  0.21820000  1.0
  H  H25  1  0.38670000  0.28460000  0.21390000  1.0
  H  H26  1  0.29910000  0.06730000  0.25410000  1.0
  H  H27  1  0.46500000  0.98730000  0.28880000  1.0
  H  H28  1  0.71860000  0.04540000  0.29580000  1.0
  H  H29  1  0.79500000  0.19020000  0.27210000  1.0
  H  H30  1  0.63630000  0.27090000  0.23900000  1.0
  H  H31  1  0.73580000  0.70300000  0.28180000  1.0
  H  H32  1  0.61330000  0.78460000  0.28610000  1.0
  H  H33  1  0.70090000  0.56730000  0.24590000  1.0
  H  H34  1  0.53500000  0.48730000  0.21120000  1.0
  H  H35  1  0.28140000  0.54540000  0.20420000  1.0
  H  H36  1  0.20500000  0.69020000  0.22790000  1.0
  H  H37  1  0.36370000  0.77090000  0.26100000  1.0
  H  H38  1  0.73580000  0.79700000  0.78180000  1.0
  H  H39  1  0.61330000  0.71540000  0.78610000  1.0
  H  H40  1  0.70090000  0.93270000  0.74590000  1.0
  H  H41  1  0.53500000  0.01270000  0.71120000  1.0
  H  H42  1  0.28140000  0.95460000  0.70420000  1.0
  H  H43  1  0.20500000  0.80980000  0.72790000  1.0
  H  H44  1  0.36370000  0.72910000  0.76100000  1.0
  H  H45  1  0.26420000  0.29700000  0.71820000  1.0
  H  H46  1  0.38670000  0.21540000  0.71390000  1.0
  H  H47  1  0.29910000  0.43270000  0.75410000  1.0
  H  H48  1  0.46500000  0.51270000  0.78880000  1.0
  H  H49  1  0.71860000  0.45460000  0.79580000  1.0
  H  H50  1  0.79500000  0.30980000  0.77210000  1.0
  H  H51  1  0.63630000  0.22910000  0.73900000  1.0
  C  C52  1  0.34690000  0.12380000  0.13560000  1.0
  C  C53  1  0.64080000  0.29260000  0.06860000  1.0
  C  C54  1  0.99520000  0.95230000  0.05480000  1.0
  C  C55  1  0.27050000  0.13120000  0.00310000  1.0
  C  C56  1  0.59040000  0.92150000  0.05900000  1.0
  C  C57  1  0.05240000  0.32770000  0.06840000  1.0
  C  C58  1  0.10520000  0.37400000  0.17460000  1.0
  C  C59  1  0.04360000  0.00150000  0.19120000  1.0
  C  C60  1  0.64120000  0.97140000  0.20130000  1.0
  C  C61  1  0.68780000  0.33170000  0.18030000  1.0
  C  C62  1  0.83580000  0.45300000  0.11450000  1.0
  C  C63  1  0.87370000  0.62670000  0.19100000  1.0
  C  C64  1  0.02690000  0.39770000  0.24890000  1.0
  C  C65  1  0.81440000  0.58110000  0.05430000  1.0
  C  C66  1  0.45070000  0.18140000  0.24440000  1.0
  C  C67  1  0.39800000  0.09370000  0.25800000  1.0
  C  C68  1  0.50000000  0.04360000  0.27860000  1.0
  C  C69  1  0.65100000  0.07960000  0.28310000  1.0
  C  C70  1  0.69500000  0.16400000  0.26860000  1.0
  C  C71  1  0.60000000  0.21460000  0.24910000  1.0
  C  C72  1  0.65310000  0.62380000  0.36440000  1.0
  C  C73  1  0.35920000  0.79260000  0.43140000  1.0
  C  C74  1  0.00480000  0.45230000  0.44520000  1.0
  C  C75  1  0.72950000  0.63120000  0.49690000  1.0
  C  C76  1  0.40960000  0.42150000  0.44100000  1.0
  C  C77  1  0.94760000  0.82770000  0.43160000  1.0
  C  C78  1  0.89480000  0.87400000  0.32540000  1.0
  C  C79  1  0.95640000  0.50150000  0.30880000  1.0
  C  C80  1  0.35880000  0.47140000  0.29870000  1.0
  C  C81  1  0.31220000  0.83170000  0.31970000  1.0
  C  C82  1  0.16420000  0.95300000  0.38550000  1.0
  C  C83  1  0.12630000  0.12670000  0.30900000  1.0
  C  C84  1  0.97310000  0.89770000  0.25110000  1.0
  C  C85  1  0.18560000  0.08110000  0.44570000  1.0
  C  C86  1  0.54930000  0.68140000  0.25560000  1.0
  C  C87  1  0.60200000  0.59370000  0.24200000  1.0
  C  C88  1  0.50000000  0.54360000  0.22140000  1.0
  C  C89  1  0.34900000  0.57960000  0.21690000  1.0
  C  C90  1  0.30500000  0.66400000  0.23140000  1.0
  C  C91  1  0.40000000  0.71460000  0.25090000  1.0
  C  C92  1  0.65310000  0.87620000  0.86440000  1.0
  C  C93  1  0.35920000  0.70740000  0.93140000  1.0
  C  C94  1  0.00480000  0.04770000  0.94520000  1.0
  C  C95  1  0.72950000  0.86880000  0.99690000  1.0
  C  C96  1  0.40960000  0.07850000  0.94100000  1.0
  C  C97  1  0.94760000  0.67230000  0.93160000  1.0
  C  C98  1  0.89480000  0.62600000  0.82540000  1.0
  C  C99  1  0.95640000  0.99850000  0.80880000  1.0
  C  C100  1  0.35880000  0.02860000  0.79870000  1.0
  C  C101  1  0.31220000  0.66830000  0.81970000  1.0
  C  C102  1  0.16420000  0.54700000  0.88550000  1.0
  C  C103  1  0.12630000  0.37330000  0.80900000  1.0
  C  C104  1  0.97310000  0.60230000  0.75110000  1.0
  C  C105  1  0.18560000  0.41890000  0.94570000  1.0
  C  C106  1  0.54930000  0.81860000  0.75560000  1.0
  C  C107  1  0.60200000  0.90630000  0.74200000  1.0
  C  C108  1  0.50000000  0.95640000  0.72140000  1.0
  C  C109  1  0.34900000  0.92040000  0.71690000  1.0
  C  C110  1  0.30500000  0.83600000  0.73140000  1.0
  C  C111  1  0.40000000  0.78540000  0.75090000  1.0
  C  C112  1  0.34690000  0.37620000  0.63560000  1.0
  C  C113  1  0.64080000  0.20740000  0.56860000  1.0
  C  C114  1  0.99520000  0.54770000  0.55480000  1.0
  C  C115  1  0.27050000  0.36880000  0.50310000  1.0
  C  C116  1  0.59040000  0.57850000  0.55900000  1.0
  C  C117  1  0.05240000  0.17230000  0.56840000  1.0
  C  C118  1  0.10520000  0.12600000  0.67460000  1.0
  C  C119  1  0.04360000  0.49850000  0.69120000  1.0
  C  C120  1  0.64120000  0.52860000  0.70130000  1.0
  C  C121  1  0.68780000  0.16830000  0.68030000  1.0
  C  C122  1  0.83580000  0.04700000  0.61450000  1.0
  C  C123  1  0.87370000  0.87330000  0.69100000  1.0
  C  C124  1  0.02690000  0.10230000  0.74890000  1.0
  C  C125  1  0.81440000  0.91890000  0.55430000  1.0
  C  C126  1  0.45070000  0.31860000  0.74440000  1.0
  C  C127  1  0.39800000  0.40630000  0.75800000  1.0
  C  C128  1  0.50000000  0.45640000  0.77860000  1.0
  C  C129  1  0.65100000  0.42040000  0.78310000  1.0
  C  C130  1  0.69500000  0.33600000  0.76860000  1.0
  C  C131  1  0.60000000  0.28540000  0.74910000  1.0
  N  N132  1  0.34020000  0.11600000  0.11400000  1.0
  N  N133  1  0.53610000  0.23230000  0.06980000  1.0
  N  N134  1  0.10440000  0.99780000  0.06290000  1.0
  N  N135  1  0.29580000  0.12650000  0.02530000  1.0
  N  N136  1  0.48810000  0.95870000  0.06750000  1.0
  N  N137  1  0.15990000  0.27690000  0.06760000  1.0
  N  N138  1  0.21310000  0.32450000  0.17100000  1.0
  N  N139  1  0.14060000  0.05380000  0.18440000  1.0
  N  N140  1  0.52830000  0.01300000  0.19400000  1.0
  N  N141  1  0.57830000  0.27160000  0.17830000  1.0
  N  N142  1  0.82530000  0.46640000  0.13610000  1.0
  N  N143  1  0.87230000  0.72180000  0.19630000  1.0
  N  N144  1  0.96280000  0.40360000  0.22800000  1.0
  N  N145  1  0.80990000  0.67790000  0.04880000  1.0
  N  N146  1  0.35410000  0.22950000  0.22250000  1.0
  N  N147  1  0.65980000  0.61600000  0.38600000  1.0
  N  N148  1  0.46390000  0.73230000  0.43020000  1.0
  N  N149  1  0.89560000  0.49780000  0.43710000  1.0
  N  N150  1  0.70420000  0.62650000  0.47470000  1.0
  N  N151  1  0.51190000  0.45870000  0.43250000  1.0
  N  N152  1  0.84010000  0.77690000  0.43240000  1.0
  N  N153  1  0.78690000  0.82450000  0.32900000  1.0
  N  N154  1  0.85940000  0.55380000  0.31560000  1.0
  N  N155  1  0.47170000  0.51300000  0.30600000  1.0
  N  N156  1  0.42170000  0.77160000  0.32170000  1.0
  N  N157  1  0.17470000  0.96640000  0.36390000  1.0
  N  N158  1  0.12770000  0.22180000  0.30370000  1.0
  N  N159  1  0.03720000  0.90360000  0.27200000  1.0
  N  N160  1  0.19010000  0.17790000  0.45120000  1.0
  N  N161  1  0.64590000  0.72950000  0.27750000  1.0
  N  N162  1  0.65980000  0.88400000  0.88600000  1.0
  N  N163  1  0.46390000  0.76770000  0.93020000  1.0
  N  N164  1  0.89560000  0.00220000  0.93710000  1.0
  N  N165  1  0.70420000  0.87350000  0.97470000  1.0
  N  N166  1  0.51190000  0.04130000  0.93250000  1.0
  N  N167  1  0.84010000  0.72310000  0.93240000  1.0
  N  N168  1  0.78690000  0.67550000  0.82900000  1.0
  N  N169  1  0.85940000  0.94620000  0.81560000  1.0
  N  N170  1  0.47170000  0.98700000  0.80600000  1.0
  N  N171  1  0.42170000  0.72840000  0.82170000  1.0
  N  N172  1  0.17470000  0.53360000  0.86390000  1.0
  N  N173  1  0.12770000  0.27820000  0.80370000  1.0
  N  N174  1  0.03720000  0.59640000  0.77200000  1.0
  N  N175  1  0.19010000  0.32210000  0.95120000  1.0
  N  N176  1  0.64590000  0.77050000  0.77750000  1.0
  N  N177  1  0.34020000  0.38400000  0.61400000  1.0
  N  N178  1  0.53610000  0.26770000  0.56980000  1.0
  N  N179  1  0.10440000  0.50220000  0.56290000  1.0
  N  N180  1  0.29580000  0.37350000  0.52530000  1.0
  N  N181  1  0.48810000  0.54130000  0.56750000  1.0
  N  N182  1  0.15990000  0.22310000  0.56760000  1.0
  N  N183  1  0.21310000  0.17550000  0.67100000  1.0
  N  N184  1  0.14060000  0.44620000  0.68440000  1.0
  N  N185  1  0.52830000  0.48700000  0.69400000  1.0
  N  N186  1  0.57830000  0.22840000  0.67830000  1.0
  N  N187  1  0.82530000  0.03360000  0.63610000  1.0
  N  N188  1  0.87230000  0.77820000  0.69630000  1.0
  N  N189  1  0.96280000  0.09640000  0.72800000  1.0
  N  N190  1  0.80990000  0.82210000  0.54880000  1.0
  N  N191  1  0.35410000  0.27050000  0.72250000  1.0
