
##########################################################################
#               Crystallographic Information Format file
#               Produced by PyCifRW module
#
#  This is a CIF file.  CIF has been adopted by the International
#  Union of Crystallography as the standard for data archiving and
#  transmission.
#
#  For information on this file format, follow the CIF links at
#  http://www.iucr.org
##########################################################################

data_image0

_cell_length_a                          7.4052
_cell_length_b                          10.1144
_cell_length_c                          18.7512
_cell_angle_alpha                       90.0
_cell_angle_beta                        90.0
_cell_angle_gamma                       90.0
_symmetry_int_tables_number             1
loop_
  _symmetry_equiv_pos_as_xyz
         'x, y, z'
loop_
  _atom_site_label
  _atom_site_fract_x
  _atom_site_fract_y
  _atom_site_fract_z
  _atom_site_type_symbol
         Eu        0.03103   0.6992    0.01904   Eu
         Eu        0.53103   0.6992    0.48096   Eu
         Eu        0.03103   0.8008    0.51904   Eu
         Eu        0.46897   0.1992    0.01904   Eu
         Eu        0.96897   0.3008    0.98096   Eu
         Eu        0.46897   0.3008    0.51904   Eu
         Eu        0.96897   0.1992    0.48096   Eu
         Eu        0.53103   0.8008    0.98096   Eu
         O         0.3279    0.5984    0.96727   O
         O         0.8279    0.5984    0.53273   O
         O         0.3279    0.9016    0.46727   O
         O         0.1721    0.0984    0.96727   O
         O         0.6721    0.4016    0.03273   O
         O         0.1721    0.4016    0.46727   O
         O         0.6721    0.0984    0.53273   O
         O         0.8279    0.9016    0.03273   O
         O         0.4496    0.522     0.58037   O
         O         0.9496    0.522     0.91963   O
         O         0.4496    0.978     0.08037   O
         O         0.0504    0.022     0.58037   O
         O         0.5504    0.478     0.41963   O
         O         0.0504    0.478     0.08037   O
         O         0.5504    0.022     0.91963   O
         O         0.9496    0.978     0.41963   O
         O         0.295     0.7077    0.59678   O
         O         0.795     0.7077    0.90322   O
         O         0.295     0.7923    0.09678   O
         O         0.205     0.2077    0.59678   O
         O         0.705     0.2923    0.40322   O
         O         0.205     0.2923    0.09678   O
         O         0.705     0.2077    0.90322   O
         O         0.795     0.7923    0.40322   O
         O         0.3118    0.3815    0.94245   O
         O         0.8118    0.3815    0.55755   O
         O         0.3118    0.1185    0.44245   O
         O         0.1882    0.8815    0.94245   O
         O         0.6882    0.6185    0.05755   O
         O         0.1882    0.6185    0.44245   O
         O         0.6882    0.8815    0.55755   O
         O         0.8118    0.1185    0.05755   O
         C         0.368     0.6026    0.6209    C
         C         0.868     0.6026    0.8791    C
         C         0.368     0.8974    0.1209    C
         C         0.132     0.1026    0.6209    C
         C         0.632     0.3974    0.3791    C
         C         0.132     0.3974    0.1209    C
         C         0.632     0.1026    0.8791    C
         C         0.868     0.8974    0.3791    C
         C         0.335     0.5011    0.9247    C
         C         0.835     0.5011    0.5753    C
         C         0.335     0.9989    0.4247    C
         C         0.165     0.0011    0.9247    C
         C         0.665     0.4989    0.0753    C
         C         0.165     0.4989    0.4247    C
         C         0.665     0.0011    0.5753    C
         C         0.835     0.9989    0.0753    C
         C         0.446     0.4629    0.7281    C
         C         0.946     0.4629    0.7719    C
         C         0.446     0.0371    0.2281    C
         C         0.054     0.9629    0.7281    C
         C         0.554     0.5371    0.2719    C
         C         0.054     0.5371    0.2281    C
         C         0.554     0.9629    0.7719    C
         C         0.946     0.0371    0.2719    C
         H         0.5024    0.4027    0.6979    H
         H         0.0024    0.4027    0.8021    H
         H         0.5024    0.0973    0.1979    H
         H         0.9976    0.9027    0.6979    H
         H         0.4976    0.5973    0.3021    H
         H         0.9976    0.5973    0.1979    H
         H         0.4976    0.9027    0.8021    H
         H         0.0024    0.0973    0.3021    H
         C         0.4405    0.4389    0.8008    C
         C         0.9405    0.4389    0.6992    C
         C         0.4405    0.0611    0.3008    C
         C         0.0595    0.9389    0.8008    C
         C         0.5595    0.5611    0.1992    C
         C         0.0595    0.5611    0.3008    C
         C         0.5595    0.9389    0.6992    C
         C         0.9405    0.0611    0.1992    C
         H         0.4886    0.3608    0.8189    H
         H         0.9886    0.3608    0.6811    H
         H         0.4886    0.1392    0.3189    H
         H         0.0114    0.8608    0.8189    H
         H         0.5114    0.6392    0.1811    H
         H         0.0114    0.6392    0.3189    H
         H         0.5114    0.8608    0.6811    H
         H         0.9886    0.1392    0.1811    H
         C         0.3636    0.5307    0.847     C
         C         0.8636    0.5307    0.653     C
         C         0.3636    0.9693    0.347     C
         C         0.1364    0.0307    0.847     C
         C         0.6364    0.4693    0.153     C
         C         0.1364    0.4693    0.347     C
         C         0.6364    0.0307    0.653     C
         C         0.8636    0.9693    0.153     C
         C         0.2981    0.6496    0.8187    C
         C         0.7981    0.6496    0.6813    C
         C         0.2981    0.8504    0.3187    C
         C         0.2019    0.1496    0.8187    C
         C         0.7019    0.3504    0.1813    C
         C         0.2019    0.3504    0.3187    C
         C         0.7019    0.1496    0.6813    C
         C         0.7981    0.8504    0.1813    C
         H         0.2554    0.715     0.8492    H
         H         0.7554    0.715     0.6508    H
         H         0.2554    0.785     0.3492    H
         H         0.2446    0.215     0.8492    H
         H         0.7446    0.285     0.1508    H
         H         0.2446    0.285     0.3492    H
         H         0.7446    0.215     0.6508    H
         H         0.7554    0.785     0.1508    H
         C         0.2962    0.6705    0.7464    C
         C         0.7962    0.6705    0.7536    C
         C         0.2962    0.8295    0.2464    C
         C         0.2038    0.1705    0.7464    C
         C         0.7038    0.3295    0.2536    C
         C         0.2038    0.3295    0.2464    C
         C         0.7038    0.1705    0.7536    C
         C         0.7962    0.8295    0.2536    C
         H         0.2469    0.7482    0.7284    H
         H         0.7469    0.7482    0.7716    H
         H         0.2469    0.7518    0.2284    H
         H         0.2531    0.2482    0.7284    H
         H         0.7531    0.2518    0.2716    H
         H         0.2531    0.2518    0.2284    H
         H         0.7531    0.2482    0.7716    H
         H         0.7469    0.7518    0.2716    H
         C         0.3673    0.577     0.6997    C
         C         0.8673    0.577     0.8003    C
         C         0.3673    0.923     0.1997    C
         C         0.1327    0.077     0.6997    C
         C         0.6327    0.423     0.3003    C
         C         0.1327    0.423     0.1997    C
         C         0.6327    0.077     0.8003    C
         C         0.8673    0.923     0.3003    C
