
##########################################################################
#               Crystallographic Information Format file
#               Produced by PyCifRW module
#
#  This is a CIF file.  CIF has been adopted by the International
#  Union of Crystallography as the standard for data archiving and
#  transmission.
#
#  For information on this file format, follow the CIF links at
#  http://www.iucr.org
##########################################################################

data_image0

_cell_length_a                          13.732
_cell_length_b                          17.188
_cell_length_c                          14.127
_cell_angle_alpha                       90.0
_cell_angle_beta                        104.57
_cell_angle_gamma                       90.0
_symmetry_int_tables_number             1
loop_
  _symmetry_equiv_pos_as_xyz
         'x, y, z'
loop_
  _atom_site_label
  _atom_site_fract_x
  _atom_site_fract_y
  _atom_site_fract_z
  _atom_site_type_symbol
         Cu        0.40877   0.19453   0.88513   Cu
         Cu        0.59123   0.69453   0.61487   Cu
         Cu        0.59123   0.80547   0.11487   Cu
         Cu        0.40877   0.30547   0.38513   Cu
         Cu        0.05085   0.30722   0.58803   Cu
         Cu        0.94915   0.80722   0.91197   Cu
         Cu        0.94915   0.69278   0.41197   Cu
         Cu        0.05085   0.19278   0.08803   Cu
         O         0.25738   0.22774   0.79725   O
         O         0.74262   0.72774   0.70275   O
         O         0.74262   0.77226   0.20275   O
         O         0.25738   0.27226   0.29725   O
         O         0.49033   0.22298   0.79227   O
         O         0.50967   0.72298   0.70773   O
         O         0.50967   0.77702   0.20773   O
         O         0.49033   0.27702   0.29227   O
         O         0.60334   0.17325   0.91934   O
         O         0.39666   0.67325   0.58066   O
         O         0.39666   0.82675   0.08066   O
         O         0.60334   0.32675   0.41934   O
         O         0.43486   0.29488   0.9519    O
         O         0.56514   0.79488   0.5481    O
         O         0.56514   0.70512   0.0481    O
         O         0.43486   0.20512   0.4519    O
         O         0.30404   0.36687   0.87148   O
         O         0.69596   0.86687   0.62852   O
         O         0.69596   0.63313   0.12852   O
         O         0.30404   0.13313   0.37148   O
         O         0.9857    0.26548   0.68814   O
         O         0.0143    0.76548   0.81186   O
         O         0.0143    0.73452   0.31186   O
         O         0.9857    0.23452   0.18814   O
         O         0.87223   0.32179   0.56812   O
         O         0.12777   0.82179   0.93188   O
         O         0.12777   0.67821   0.43188   O
         O         0.87223   0.17821   0.06812   O
         O         0.02487   0.21205   0.51254   O
         O         0.97513   0.71205   0.98746   O
         O         0.97513   0.78795   0.48746   O
         O         0.02487   0.28795   0.01254   O
         O         0.15876   0.16267   0.61854   O
         O         0.84124   0.66267   0.88146   O
         O         0.84124   0.83733   0.38146   O
         O         0.15876   0.33733   0.11854   O
         N         0.38277   0.13927   0.00193   N
         N         0.61723   0.63927   0.49807   N
         N         0.61723   0.86073   0.99807   N
         N         0.38277   0.36073   0.50193   N
         N         0.39021   0.08613   0.83226   N
         N         0.60979   0.58613   0.66774   N
         N         0.60979   0.91387   0.16774   N
         N         0.39021   0.41387   0.33226   N
         N         0.09284   0.36834   0.48596   N
         N         0.90716   0.86834   0.01404   N
         N         0.90716   0.63166   0.51404   N
         N         0.09284   0.13166   0.98596   N
         N         0.09368   0.40423   0.6645    N
         N         0.90632   0.90423   0.8355    N
         N         0.90632   0.59577   0.3355    N
         N         0.09368   0.09577   0.1645    N
         C         0.5461    0.42805   0.02078   C
         C         0.4539    0.92805   0.47922   C
         C         0.4539    0.57195   0.97922   C
         C         0.5461    0.07195   0.52078   C
         C         0.401     0.50453   0.946     C
         C         0.599     0.00453   0.554     C
         C         0.599     0.49547   0.054     C
         C         0.401     0.99547   0.446     C
         C         0.4473    0.4315    0.9661    C
         C         0.5527    0.9315    0.5339    C
         C         0.5527    0.5685    0.0339    C
         C         0.4473    0.0685    0.4661    C
         C         0.3892    0.3592    0.92644   C
         C         0.6108    0.8592    0.57356   C
         C         0.6108    0.6408    0.07356   C
         C         0.3892    0.1408    0.42644   C
         C         0.3823    0.17219   0.0877    C
         C         0.6177    0.67219   0.4123    C
         C         0.6177    0.82781   0.9123    C
         C         0.3823    0.32781   0.5877    C
         C         0.3783    0.12865   0.1689    C
         C         0.6217    0.62865   0.3311    C
         C         0.6217    0.87135   0.8311    C
         C         0.3783    0.37135   0.6689    C
         C         0.3739    0.04879   0.1615    C
         C         0.6261    0.54879   0.3385    C
         C         0.6261    0.95121   0.8385    C
         C         0.3739    0.45121   0.6615    C
         C         0.3733    0.01368   0.0727    C
         C         0.6267    0.51368   0.4273    C
         C         0.6267    0.98632   0.9273    C
         C         0.3733    0.48632   0.5727    C
         C         0.37823   0.06057   0.99407   C
         C         0.62177   0.56057   0.50593   C
         C         0.62177   0.93943   0.00593   C
         C         0.37823   0.43943   0.49407   C
         C         0.37653   0.03101   0.89562   C
         C         0.62347   0.53101   0.60438   C
         C         0.62347   0.96899   0.10438   C
         C         0.37653   0.46899   0.39562   C
         C         0.3627    0.95315   0.8682    C
         C         0.6373    0.45315   0.6318    C
         C         0.6373    0.04685   0.1318    C
         C         0.3627    0.54685   0.3682    C
         C         0.36      0.93374   0.7727    C
         C         0.64      0.43374   0.7273    C
         C         0.64      0.06626   0.2273    C
         C         0.36      0.56626   0.2727    C
         C         0.373     0.99004   0.7078    C
         C         0.627     0.49004   0.7922    C
         C         0.627     0.00996   0.2922    C
         C         0.373     0.50996   0.2078    C
         C         0.3872    0.06621   0.74      C
         C         0.6128    0.56621   0.76      C
         C         0.6128    0.93379   0.26      C
         C         0.3872    0.43379   0.24      C
         C         0.5806    0.20467   0.83764   C
         C         0.4194    0.70467   0.66236   C
         C         0.4194    0.79533   0.16236   C
         C         0.5806    0.29533   0.33764   C
         C         0.66161   0.22373   0.78677   C
         C         0.33839   0.72373   0.71323   C
         C         0.33839   0.77627   0.21323   C
         C         0.66161   0.27627   0.28677   C
         C         0.6405    0.23454   0.68587   C
         C         0.3595    0.73454   0.81413   C
         C         0.3595    0.76546   0.31413   C
         C         0.6405    0.26546   0.18587   C
         C         0.7152    0.25389   0.64064   C
         C         0.2848    0.75389   0.85936   C
         C         0.2848    0.74611   0.35936   C
         C         0.7152    0.24611   0.14064   C
         C         0.81405   0.2629    0.69631   C
         C         0.18595   0.7629    0.80369   C
         C         0.18595   0.7371    0.30369   C
         C         0.81405   0.2371    0.19631   C
         C         0.836     0.25255   0.79741   C
         C         0.164     0.75255   0.70259   C
         C         0.164     0.74745   0.20259   C
         C         0.836     0.24745   0.29741   C
         C         0.7605    0.23231   0.84218   C
         C         0.2395    0.73231   0.65782   C
         C         0.2395    0.76769   0.15782   C
         C         0.7605    0.26769   0.34218   C
         C         0.89521   0.28515   0.64701   C
         C         0.10479   0.78515   0.85299   C
         C         0.10479   0.71485   0.35299   C
         C         0.89521   0.21485   0.14701   C
         C         0.0959    0.41616   0.75895   C
         C         0.9041    0.91616   0.74105   C
         C         0.9041    0.58384   0.24105   C
         C         0.0959    0.08384   0.25895   C
         C         0.1207    0.4876    0.8042    C
         C         0.8793    0.9876    0.6958    C
         C         0.8793    0.5124    0.1958    C
         C         0.1207    0.0124    0.3042    C
         C         0.1448    0.54778   0.7501    C
         C         0.8552    0.04778   0.7499    C
         C         0.8552    0.45222   0.2499    C
         C         0.1448    0.95222   0.2501    C
         C         0.1434    0.53661   0.6527    C
         C         0.8566    0.03661   0.8473    C
         C         0.8566    0.46339   0.3473    C
         C         0.1434    0.96339   0.1527    C
         C         0.11799   0.46367   0.61202   C
         C         0.88201   0.96367   0.88798   C
         C         0.88201   0.53633   0.38798   C
         C         0.11799   0.03633   0.11202   C
         C         0.11381   0.44436   0.50935   C
         C         0.88619   0.94436   0.99065   C
         C         0.88619   0.55564   0.49065   C
         C         0.11381   0.05564   0.00935   C
         C         0.1301    0.49704   0.441     C
         C         0.8699    0.99704   0.059     C
         C         0.8699    0.50296   0.559     C
         C         0.1301    0.00296   0.941     C
         C         0.1224    0.47211   0.3459    C
         C         0.8776    0.97211   0.1541    C
         C         0.8776    0.52789   0.6541    C
         C         0.1224    0.02789   0.8459    C
         C         0.1028    0.39496   0.323     C
         C         0.8972    0.89496   0.177     C
         C         0.8972    0.60504   0.677     C
         C         0.1028    0.10504   0.823     C
         C         0.0878    0.34454   0.39403   C
         C         0.9122    0.84454   0.10597   C
         C         0.9122    0.65546   0.60597   C
         C         0.0878    0.15546   0.89403   C
         C         0.0792    0.15545   0.55484   C
         C         0.9208    0.65545   0.94516   C
         C         0.9208    0.84455   0.44516   C
         C         0.0792    0.34455   0.05484   C
         C         0.0387    0.07493   0.52491   C
         C         0.9613    0.57493   0.97509   C
         C         0.9613    0.92507   0.47509   C
         C         0.0387    0.42507   0.02491   C
         C         0.944     0.0647    0.45995   C
         C         0.056     0.5647    0.04005   C
         C         0.056     0.9353    0.54005   C
         C         0.944     0.4353    0.95995   C
         C         0.0938    0.00944   0.5646    C
         C         0.9062    0.50944   0.9354    C
         C         0.9062    0.99056   0.4354    C
         C         0.0938    0.49056   0.0646    C
         H         0.234     0.2178    0.738     H
         H         0.766     0.7178    0.762     H
         H         0.766     0.7822    0.262     H
         H         0.234     0.2822    0.238     H
         H         0.256     0.276     0.807     H
         H         0.744     0.776     0.693     H
         H         0.744     0.724     0.193     H
         H         0.256     0.224     0.307     H
         H         0.58      0.3782    0.034     H
         H         0.42      0.8782    0.466     H
         H         0.42      0.6218    0.966     H
         H         0.58      0.1218    0.534     H
         H         0.331     0.5052    0.9094    H
         H         0.669     0.0052    0.5906    H
         H         0.669     0.4948    0.0906    H
         H         0.331     0.9948    0.4094    H
         H         0.39      0.2265    0.089     H
         H         0.61      0.7265    0.411     H
         H         0.61      0.7735    0.911     H
         H         0.39      0.2735    0.589     H
         H         0.376     0.1552    0.222     H
         H         0.624     0.6552    0.278     H
         H         0.624     0.8448    0.778     H
         H         0.376     0.3448    0.722     H
         H         0.371     0.0198    0.216     H
         H         0.629     0.5198    0.284     H
         H         0.629     0.9802    0.784     H
         H         0.371     0.4802    0.716     H
         H         0.373     0.9585    0.067     H
         H         0.627     0.4585    0.433     H
         H         0.627     0.0415    0.933     H
         H         0.373     0.5415    0.567     H
         H         0.355     0.9165    0.908     H
         H         0.645     0.4165    0.592     H
         H         0.645     0.0835    0.092     H
         H         0.355     0.5835    0.408     H
         H         0.347     0.882     0.759     H
         H         0.653     0.382     0.741     H
         H         0.653     0.118     0.241     H
         H         0.347     0.618     0.259     H
         H         0.371     0.978     0.647     H
         H         0.629     0.478     0.853     H
         H         0.629     0.022     0.353     H
         H         0.371     0.522     0.147     H
         H         0.4       0.1054    0.697     H
         H         0.6       0.6054    0.803     H
         H         0.6       0.8946    0.303     H
         H         0.4       0.3946    0.197     H
         H         0.573     0.2288    0.6508    H
         H         0.427     0.7288    0.8492    H
         H         0.427     0.7712    0.3492    H
         H         0.573     0.2712    0.1508    H
         H         0.696     0.2652    0.573     H
         H         0.304     0.7652    0.927     H
         H         0.304     0.7348    0.427     H
         H         0.696     0.2348    0.073     H
         H         0.898     0.2582    0.834     H
         H         0.102     0.7582    0.666     H
         H         0.102     0.7418    0.166     H
         H         0.898     0.2418    0.334     H
         H         0.778     0.2268    0.912     H
         H         0.222     0.7268    0.588     H
         H         0.222     0.7732    0.088     H
         H         0.778     0.2732    0.412     H
         H         0.075     0.3721    0.792     H
         H         0.925     0.8721    0.708     H
         H         0.925     0.6279    0.208     H
         H         0.075     0.1279    0.292     H
         H         0.121     0.4926    0.869     H
         H         0.879     0.9926    0.631     H
         H         0.879     0.5074    0.131     H
         H         0.121     0.0074    0.369     H
         H         0.162     0.5927    0.782     H
         H         0.838     0.0927    0.718     H
         H         0.838     0.4073    0.218     H
         H         0.162     0.9073    0.282     H
         H         0.162     0.5817    0.616     H
         H         0.838     0.0817    0.884     H
         H         0.838     0.4183    0.384     H
         H         0.162     0.9183    0.116     H
         H         0.151     0.548     0.46      H
         H         0.849     0.048     0.04      H
         H         0.849     0.452     0.54      H
         H         0.151     0.952     0.96      H
         H         0.14      0.5079    0.302     H
         H         0.86      0.0079    0.198     H
         H         0.86      0.4921    0.698     H
         H         0.14      0.9921    0.802     H
         H         0.099     0.3771    0.263     H
         H         0.901     0.8771    0.237     H
         H         0.901     0.6229    0.737     H
         H         0.099     0.1229    0.763     H
         H         0.076     0.2919    0.383     H
         H         0.924     0.7919    0.117     H
         H         0.924     0.7081    0.617     H
         H         0.076     0.2081    0.883     H
         H         0.902     0.1081    0.4318    H
         H         0.098     0.6081    0.0682    H
         H         0.098     0.8919    0.5682    H
         H         0.902     0.3919    0.9318    H
         H         0.158     0.0168    0.607     H
         H         0.842     0.5168    0.893     H
         H         0.842     0.9832    0.393     H
         H         0.158     0.4832    0.107     H
