
##########################################################################
#               CrystCulographic Information Format file
#               Produced by PyCifRW module
#
#  This is a CIF file.  CIF has been adopted by the InternationCu
#  Union of CrystCulography as the standard for data archiving and
#  transmission.
#
#  For information on this file format, follow the CIF links at
#  http://www.iucr.org
##########################################################################

data_image0

_cell_length_a                          18.4753
_cell_length_b                          18.4753
_cell_length_c                          37.4264
_cell_angle_alpha                       90.0
_cell_angle_beta                        90.0
_cell_angle_gamma                       90.0
_symmetry_int_tables_number             1
loop_
  _symmetry_equiv_pos_as_xyz
         'x, y, z'
loop_
  _atom_site_label
  _atom_site_fract_x
  _atom_site_fract_y
  _atom_site_fract_z
  _atom_site_type_symbol
         Cu        0.33408   0.66592   0.0       Cu
         Cu        0.83408   0.83408   0.5       Cu
         Cu        0.66592   0.33408   0.0       Cu
         Cu        0.16592   0.16592   0.5       Cu
         O         0.37146   0.60635   0.03483   O
         O         0.89365   0.87146   0.53483   O
         O         0.62854   0.39365   0.03483   O
         O         0.10635   0.12854   0.53483   O
         O         0.87146   0.89365   0.46517   O
         O         0.12854   0.10635   0.46517   O
         O         0.60635   0.37146   0.96517   O
         O         0.39365   0.62854   0.96517   O
         O         0.40161   0.74194   0.01163   O
         O         0.75806   0.90161   0.51163   O
         O         0.59839   0.25806   0.01163   O
         O         0.24194   0.09839   0.51163   O
         O         0.90161   0.75806   0.48837   O
         O         0.09839   0.24194   0.48837   O
         O         0.74194   0.40161   0.98837   O
         O         0.25806   0.59839   0.98837   O
         O         0.29569   0.73504   0.96694   O
         O         0.76496   0.79569   0.46694   O
         O         0.70431   0.26496   0.96694   O
         O         0.23504   0.20431   0.46694   O
         O         0.79569   0.76496   0.53306   O
         O         0.20431   0.23504   0.53306   O
         O         0.73504   0.29569   0.03306   O
         O         0.26496   0.70431   0.03306   O
         Cu        0.40721   0.63454   0.07891   Cu
         Cu        0.86546   0.90721   0.57891   Cu
         Cu        0.59279   0.36546   0.07891   Cu
         Cu        0.13454   0.09279   0.57891   Cu
         Cu        0.90721   0.86546   0.42109   Cu
         Cu        0.09279   0.13454   0.42109   Cu
         Cu        0.63454   0.40721   0.92109   Cu
         Cu        0.36546   0.59279   0.92109   Cu
         H         0.3725    0.556     0.0297    H
         H         0.944     0.8725    0.5297    H
         H         0.6275    0.444     0.0297    H
         H         0.056     0.1275    0.5297    H
         H         0.8725    0.944     0.4703    H
         H         0.1275    0.056     0.4703    H
         H         0.556     0.3725    0.9703    H
         H         0.444     0.6275    0.9703    H
         C         0.45279   0.75035   0.0334    C
         C         0.74965   0.95279   0.5334    C
         C         0.54721   0.24965   0.0334    C
         C         0.25035   0.04721   0.5334    C
         C         0.95279   0.74965   0.4666    C
         C         0.04721   0.25035   0.4666    C
         C         0.75035   0.45279   0.9666    C
         C         0.24965   0.54721   0.9666    C
         O         0.48056   0.56926   0.07888   O
         O         0.93074   0.98056   0.57888   O
         O         0.51944   0.43074   0.07888   O
         O         0.06926   0.01944   0.57888   O
         O         0.98056   0.93074   0.42112   O
         O         0.01944   0.06926   0.42112   O
         O         0.56926   0.48056   0.92112   O
         O         0.43074   0.51944   0.92112   O
         O         0.43569   0.66806   0.12502   O
         O         0.83194   0.93569   0.62502   O
         O         0.56431   0.33194   0.12502   O
         O         0.16806   0.06431   0.62502   O
         O         0.93569   0.83194   0.37498   O
         O         0.06431   0.16806   0.37498   O
         O         0.66806   0.43569   0.87498   O
         O         0.33194   0.56431   0.87498   O
         O         0.46891   0.70772   0.05861   O
         O         0.79228   0.96891   0.55861   O
         O         0.53109   0.29228   0.05861   O
         O         0.20772   0.03109   0.55861   O
         O         0.96891   0.79228   0.44139   O
         O         0.03109   0.20772   0.44139   O
         O         0.70772   0.46891   0.94139   O
         O         0.29228   0.53109   0.94139   O
         O         0.33332   0.70446   0.08221   O
         O         0.79554   0.83332   0.58221   O
         O         0.66668   0.29554   0.08221   O
         O         0.20446   0.16668   0.58221   O
         O         0.83332   0.79554   0.41779   O
         O         0.16668   0.20446   0.41779   O
         O         0.70446   0.33332   0.91779   O
         O         0.29554   0.66668   0.91779   O
         O         0.33959   0.56898   0.10216   O
         O         0.93102   0.83959   0.60216   O
         O         0.66041   0.43102   0.10216   O
         O         0.06898   0.16041   0.60216   O
         O         0.83959   0.93102   0.39784   O
         O         0.16041   0.06898   0.39784   O
         O         0.56898   0.33959   0.89784   O
         O         0.43102   0.66041   0.89784   O
         H         0.4819    0.7924    0.0307    H
         H         0.7076    0.9819    0.5307    H
         H         0.5181    0.2076    0.0307    H
         H         0.2924    0.0181    0.5307    H
         H         0.9819    0.7076    0.4693    H
         H         0.0181    0.2924    0.4693    H
         H         0.7924    0.4819    0.9693    H
         H         0.2076    0.5181    0.9693    H
         Cu        0.5       0.5       0.11274   Cu
         Cu        0.0       0.0       0.61274   Cu
         Cu        0.0       0.0       0.38726   Cu
         Cu        0.5       0.5       0.88726   Cu
         H         0.5126    0.5711    0.059     H
         H         0.9289    0.0126    0.559     H
         H         0.4874    0.4289    0.059     H
         H         0.0711    0.9874    0.559     H
         H         0.0126    0.9289    0.441     H
         H         0.9874    0.0711    0.441     H
         H         0.5711    0.5126    0.941     H
         H         0.4289    0.4874    0.941     H
         C         0.34587   0.50598   0.11428   C
         C         0.99402   0.84587   0.61428   C
         C         0.65413   0.49402   0.11428   C
         C         0.00598   0.15413   0.61428   C
         C         0.84587   0.99402   0.38572   C
         C         0.15413   0.00598   0.38572   C
         C         0.50598   0.34587   0.88572   C
         C         0.49402   0.65413   0.88572   C
         C         0.36895   0.54181   0.84914   C
         C         0.95819   0.86895   0.34914   C
         C         0.63105   0.45819   0.84914   C
         C         0.04181   0.13105   0.34914   C
         C         0.86895   0.95819   0.65086   C
         C         0.13105   0.04181   0.65086   C
         C         0.54181   0.36895   0.15086   C
         C         0.45819   0.63105   0.15086   C
         O         0.47982   0.56734   0.15034   O
         O         0.93266   0.97982   0.65034   O
         O         0.52018   0.43266   0.15034   O
         O         0.06734   0.02018   0.65034   O
         O         0.97982   0.93266   0.34966   O
         O         0.02018   0.06734   0.34966   O
         O         0.56734   0.47982   0.84966   O
         O         0.43266   0.52018   0.84966   O
         O         0.59711   0.52978   0.11597   O
         O         0.97022   0.09711   0.61597   O
         O         0.40289   0.47022   0.11597   O
         O         0.02978   0.90289   0.61597   O
         O         0.09711   0.97022   0.38403   O
         O         0.90289   0.02978   0.38403   O
         O         0.52978   0.59711   0.88403   O
         O         0.47022   0.40289   0.88403   O
         C         0.27928   0.46968   0.12859   C
         C         0.03032   0.77928   0.62859   C
         C         0.72072   0.53032   0.12859   C
         C         0.96968   0.22072   0.62859   C
         C         0.77928   0.03032   0.37141   C
         C         0.22072   0.96968   0.37141   C
         C         0.46968   0.27928   0.87141   C
         C         0.53032   0.72072   0.87141   C
         C         0.33113   0.54072   0.81351   C
         C         0.95928   0.83113   0.31351   C
         C         0.66887   0.45928   0.81351   C
         C         0.04072   0.16887   0.31351   C
         C         0.83113   0.95928   0.68649   C
         C         0.16887   0.04072   0.68649   C
         C         0.54072   0.33113   0.18649   C
         C         0.45928   0.66887   0.18649   C
         C         0.21094   0.4982    0.12354   C
         C         0.0018    0.71094   0.62354   C
         C         0.78906   0.5018    0.12354   C
         C         0.9982    0.28906   0.62354   C
         C         0.71094   0.0018    0.37646   C
         C         0.28906   0.9982    0.37646   C
         C         0.4982    0.21094   0.87646   C
         C         0.5018    0.78906   0.87646   C
         C         0.28828   0.40603   0.14831   C
         C         0.09397   0.78828   0.64831   C
         C         0.71172   0.59397   0.14831   C
         C         0.90603   0.21172   0.64831   C
         C         0.78828   0.09397   0.35169   C
         C         0.21172   0.90603   0.35169   C
         C         0.40603   0.28828   0.85169   C
         C         0.59397   0.71172   0.85169   C
         C         0.36199   0.50734   0.78437   C
         C         0.99266   0.86199   0.28437   C
         C         0.63801   0.49266   0.78437   C
         C         0.00734   0.13801   0.28437   C
         C         0.86199   0.99266   0.71563   C
         C         0.13801   0.00734   0.71563   C
         C         0.50734   0.36199   0.21563   C
         C         0.49266   0.63801   0.21563   C
         C         0.26473   0.57484   0.80931   C
         C         0.92516   0.76473   0.30931   C
         C         0.73527   0.42516   0.80931   C
         C         0.07484   0.23527   0.30931   C
         C         0.76473   0.92516   0.69069   C
         C         0.23527   0.07484   0.69069   C
         C         0.57484   0.26473   0.19069   C
         C         0.42516   0.73527   0.19069   C
         H         0.2051    0.5424    0.1109    H
         H         0.9576    0.7051    0.6109    H
         H         0.7949    0.4576    0.1109    H
         H         0.0424    0.2949    0.6109    H
         H         0.7051    0.9576    0.3891    H
         H         0.2949    0.0424    0.3891    H
         H         0.5424    0.2051    0.8891    H
         H         0.4576    0.7949    0.8891    H
         C         0.15115   0.46245   0.13689   C
         C         0.03755   0.65115   0.63689   C
         C         0.84885   0.53755   0.13689   C
         C         0.96245   0.34885   0.63689   C
         C         0.65115   0.03755   0.36311   C
         C         0.34885   0.96245   0.36311   C
         C         0.46245   0.15115   0.86311   C
         C         0.53755   0.84885   0.86311   C
         C         0.22902   0.37025   0.16155   C
         C         0.12975   0.72902   0.66155   C
         C         0.77098   0.62975   0.16155   C
         C         0.87025   0.27098   0.66155   C
         C         0.72902   0.12975   0.33845   C
         C         0.27098   0.87025   0.33845   C
         C         0.37025   0.22902   0.83845   C
         C         0.62975   0.77098   0.83845   C
         H         0.3355    0.3875    0.1525    H
         H         0.1125    0.8355    0.6525    H
         H         0.6645    0.6125    0.1525    H
         H         0.8875    0.1645    0.6525    H
         H         0.8355    0.1125    0.3475    H
         H         0.1645    0.8875    0.3475    H
         H         0.3875    0.3355    0.8475    H
         H         0.6125    0.6645    0.8475    H
         H         0.4076    0.4842    0.7868    H
         H         0.0158    0.9076    0.2868    H
         H         0.5924    0.5158    0.7868    H
         H         0.9842    0.0924    0.2868    H
         H         0.9076    0.0158    0.7132    H
         H         0.0924    0.9842    0.7132    H
         H         0.4842    0.4076    0.2132    H
         H         0.5158    0.5924    0.2132    H
         C         0.32736   0.50715   0.75172   C
         C         0.99285   0.82736   0.25172   C
         C         0.67264   0.49285   0.75172   C
         C         0.00715   0.17264   0.25172   C
         C         0.82736   0.99285   0.74828   C
         C         0.17264   0.00715   0.74828   C
         C         0.50715   0.32736   0.24828   C
         C         0.49285   0.67264   0.24828   C
         C         0.22993   0.57587   0.77674   C
         C         0.92413   0.72993   0.27674   C
         C         0.77007   0.42413   0.77674   C
         C         0.07587   0.27007   0.27674   C
         C         0.72993   0.92413   0.72326   C
         C         0.27007   0.07587   0.72326   C
         C         0.57587   0.22993   0.22326   C
         C         0.42413   0.77007   0.22326   C
         H         0.2429    0.5979    0.8293    H
         H         0.9021    0.7429    0.3293    H
         H         0.7571    0.4021    0.8293    H
         H         0.0979    0.2571    0.3293    H
         H         0.7429    0.9021    0.6707    H
         H         0.2571    0.0979    0.6707    H
         H         0.5979    0.2429    0.1707    H
         H         0.4021    0.7571    0.1707    H
         C         0.1594    0.39563   0.15567   C
         C         0.10437   0.6594    0.65567   C
         C         0.8406    0.60437   0.15567   C
         C         0.89563   0.3406    0.65567   C
         C         0.6594    0.10437   0.34433   C
         C         0.3406    0.89563   0.34433   C
         C         0.39563   0.1594    0.84433   C
         C         0.60437   0.8406    0.84433   C
         H         0.1042    0.4824    0.1336    H
         H         0.0176    0.6042    0.6336    H
         H         0.8958    0.5176    0.1336    H
         H         0.9824    0.3958    0.6336    H
         H         0.6042    0.0176    0.3664    H
         H         0.3958    0.9824    0.3664    H
         H         0.4824    0.1042    0.8664    H
         H         0.5176    0.8958    0.8664    H
         H         0.2358    0.3272    0.175     H
         H         0.1728    0.7358    0.675     H
         H         0.7642    0.6728    0.175     H
         H         0.8272    0.2642    0.675     H
         H         0.7358    0.1728    0.325     H
         H         0.2642    0.8272    0.325     H
         H         0.3272    0.2358    0.825     H
         H         0.6728    0.7642    0.825     H
         C         0.26208   0.54119   0.74715   C
         C         0.95881   0.76208   0.24715   C
         C         0.73792   0.45881   0.74715   C
         C         0.04119   0.23792   0.24715   C
         C         0.76208   0.95881   0.75285   C
         C         0.23792   0.04119   0.75285   C
         C         0.54119   0.26208   0.25285   C
         C         0.45881   0.73792   0.25285   C
         H         0.3491    0.483     0.7321    H
         H         0.017     0.8491    0.2321    H
         H         0.6509    0.517     0.7321    H
         H         0.983     0.1509    0.2321    H
         H         0.8491    0.017     0.7679    H
         H         0.1509    0.983     0.7679    H
         H         0.483     0.3491    0.2679    H
         H         0.517     0.6509    0.2679    H
         H         0.1847    0.5998    0.7742    H
         H         0.9002    0.6847    0.2742    H
         H         0.8153    0.4002    0.7742    H
         H         0.0998    0.3153    0.2742    H
         H         0.6847    0.9002    0.7258    H
         H         0.3153    0.0998    0.7258    H
         H         0.5998    0.1847    0.2258    H
         H         0.4002    0.8153    0.2258    H
         C         0.09651   0.3531    0.16795   C
         C         0.1469    0.59651   0.66795   C
         C         0.90349   0.6469    0.16795   C
         C         0.8531    0.40349   0.66795   C
         C         0.59651   0.1469    0.33205   C
         C         0.40349   0.8531    0.33205   C
         C         0.3531    0.09651   0.83205   C
         C         0.6469    0.90349   0.83205   C
         C         0.22382   0.53996   0.71187   C
         C         0.96004   0.72382   0.21187   C
         C         0.77618   0.46004   0.71187   C
         C         0.03996   0.27618   0.21187   C
         C         0.72382   0.96004   0.78813   C
         C         0.27618   0.03996   0.78813   C
         C         0.53996   0.22382   0.28813   C
         C         0.46004   0.77618   0.28813   C
         C         0.03579   0.34678   0.14647   C
         C         0.15322   0.53579   0.64647   C
         C         0.96421   0.65322   0.14647   C
         C         0.84678   0.46421   0.64647   C
         C         0.53579   0.15322   0.35353   C
         C         0.46421   0.84678   0.35353   C
         C         0.34678   0.03579   0.85353   C
         C         0.65322   0.96421   0.85353   C
         C         0.09731   0.31837   0.20114   C
         C         0.18163   0.59731   0.70114   C
         C         0.90269   0.68163   0.20114   C
         C         0.81837   0.40269   0.70114   C
         C         0.59731   0.18163   0.29886   C
         C         0.40269   0.81837   0.29886   C
         C         0.31837   0.09731   0.79886   C
         C         0.68163   0.90269   0.79886   C
         C         0.22953   0.47927   0.69043   C
         C         0.02073   0.72953   0.19043   C
         C         0.77047   0.52073   0.69043   C
         C         0.97927   0.27047   0.19043   C
         C         0.72953   0.02073   0.80957   C
         C         0.27047   0.97927   0.80957   C
         C         0.47927   0.22953   0.30957   C
         C         0.52073   0.77047   0.30957   C
         C         0.97623   0.30619   0.1574    C
         C         0.19381   0.47623   0.6574    C
         C         0.02377   0.69381   0.1574    C
         C         0.80619   0.52377   0.6574    C
         C         0.47623   0.19381   0.3426    C
         C         0.52377   0.80619   0.3426    C
         C         0.30619   0.97623   0.8426    C
         C         0.69381   0.02377   0.8426    C
         H         0.0347    0.3705    0.124     H
         H         0.1295    0.5347    0.624     H
         H         0.9653    0.6295    0.124     H
         H         0.8705    0.4653    0.624     H
         H         0.5347    0.1295    0.376     H
         H         0.4653    0.8705    0.376     H
         H         0.3705    0.0347    0.876     H
         H         0.6295    0.9653    0.876     H
         H         0.1379    0.324     0.2165    H
         H         0.176     0.6379    0.7165    H
         H         0.8621    0.676     0.2165    H
         H         0.824     0.3621    0.7165    H
         H         0.6379    0.176     0.2835    H
         H         0.3621    0.824     0.2835    H
         H         0.324     0.1379    0.7835    H
         H         0.676     0.8621    0.7835    H
         H         0.2579    0.4393    0.6981    H
         H         0.0607    0.7579    0.1981    H
         H         0.7421    0.5607    0.6981    H
         H         0.9393    0.2421    0.1981    H
         H         0.7579    0.0607    0.8019    H
         H         0.2421    0.9393    0.8019    H
         H         0.4393    0.2579    0.3019    H
         H         0.5607    0.7421    0.3019    H
         C         0.91227   0.29959   0.13412   C
         C         0.20041   0.41227   0.63412   C
         C         0.08773   0.70041   0.13412   C
         C         0.79959   0.58773   0.63412   C
         C         0.41227   0.20041   0.36588   C
         C         0.58773   0.79959   0.36588   C
         C         0.29959   0.91227   0.86588   C
         C         0.70041   0.08773   0.86588   C
         C         0.9213    0.2979    0.0966    C
         C         0.2021    0.4213    0.5966    C
         C         0.0787    0.7021    0.0966    C
         C         0.7979    0.5787    0.5966    C
         C         0.4213    0.2021    0.4034    C
         C         0.5787    0.7979    0.4034    C
         C         0.2979    0.9213    0.9034    C
         C         0.7021    0.0787    0.9034    C
         C         0.84424   0.29384   0.1486    C
         C         0.20616   0.34424   0.6486    C
         C         0.15576   0.70616   0.1486    C
         C         0.79384   0.65576   0.6486    C
         C         0.34424   0.20616   0.3514    C
         C         0.65576   0.79384   0.3514    C
         C         0.29384   0.84424   0.8514    C
         C         0.70616   0.15576   0.8514    C
         C         0.85983   0.29352   0.07491   C
         C         0.20648   0.35983   0.57491   C
         C         0.14017   0.70648   0.07491   C
         C         0.79352   0.64017   0.57491   C
         C         0.35983   0.20648   0.42509   C
         C         0.64017   0.79352   0.42509   C
         C         0.29352   0.85983   0.92509   C
         C         0.70648   0.14017   0.92509   C
         H         0.9683    0.2997    0.0863    H
         H         0.2003    0.4683    0.5863    H
         H         0.0317    0.7003    0.0863    H
         H         0.7997    0.5317    0.5863    H
         H         0.4683    0.2003    0.4137    H
         H         0.5317    0.7997    0.4137    H
         H         0.2997    0.9683    0.9137    H
         H         0.7003    0.0317    0.9137    H
         C         0.78366   0.28826   0.12626   C
         C         0.21174   0.28366   0.62626   C
         C         0.21634   0.71174   0.12626   C
         C         0.78826   0.71634   0.62626   C
         C         0.28366   0.21174   0.37374   C
         C         0.71634   0.78826   0.37374   C
         C         0.28826   0.78366   0.87374   C
         C         0.71174   0.21634   0.87374   C
         H         0.8382    0.2936    0.1738    H
         H         0.2064    0.3382    0.6738    H
         H         0.1618    0.7064    0.1738    H
         H         0.7936    0.6618    0.6738    H
         H         0.3382    0.2064    0.3262    H
         H         0.6618    0.7936    0.3262    H
         H         0.2936    0.8382    0.8262    H
         H         0.7064    0.1618    0.8262    H
         C         0.79244   0.28819   0.08959   C
         C         0.21181   0.29244   0.58959   C
         C         0.20756   0.71181   0.08959   C
         C         0.78819   0.70756   0.58959   C
         C         0.29244   0.21181   0.41041   C
         C         0.70756   0.78819   0.41041   C
         C         0.28819   0.79244   0.91041   C
         C         0.71181   0.20756   0.91041   C
         H         0.865     0.2943    0.0497    H
         H         0.2057    0.365     0.5497    H
         H         0.135     0.7057    0.0497    H
         H         0.7943    0.635     0.5497    H
         H         0.365     0.2057    0.4503    H
         H         0.635     0.7943    0.4503    H
         H         0.2943    0.865     0.9503    H
         H         0.7057    0.135     0.9503    H
         H         0.7366    0.2845    0.1363    H
         H         0.2155    0.2366    0.6363    H
         H         0.2634    0.7155    0.1363    H
         H         0.7845    0.7634    0.6363    H
         H         0.2366    0.2155    0.3637    H
         H         0.7634    0.7845    0.3637    H
         H         0.2845    0.7366    0.8637    H
         H         0.7155    0.2634    0.8637    H
         C         0.72725   0.29326   0.06643   C
         C         0.20674   0.22725   0.56643   C
         C         0.27275   0.70674   0.06643   C
         C         0.79326   0.77275   0.56643   C
         C         0.22725   0.20674   0.43357   C
         C         0.77275   0.79326   0.43357   C
         C         0.29326   0.72725   0.93357   C
         C         0.70674   0.27275   0.93357   C
