
##########################################################################
#               Crystallographic Information Format file
#               Produced by PyCifRW module
#
#  This is a CIF file.  CIF has been adopted by the International
#  Union of Crystallography as the standard for data archiving and
#  transmission.
#
#  For information on this file format, follow the CIF links at
#  http://www.iucr.org
##########################################################################

data_image0

_cell_length_a                          19.293
_cell_length_b                          19.293
_cell_length_c                          20.838
_cell_angle_alpha                       90.0
_cell_angle_beta                        90.0
_cell_angle_gamma                       120.0
_symmetry_int_tables_number             1
loop_
  _symmetry_equiv_pos_as_xyz
         'x, y, z'
loop_
  _atom_site_label
  _atom_site_fract_x
  _atom_site_fract_y
  _atom_site_fract_z
  _atom_site_type_symbol
         C         0.9119    0.9976    0.09567   C
         C         0.0024    0.9143    0.76234   C
         C         0.0857    0.0881    0.429     C
         C         0.0881    0.0024    0.59567   C
         C         0.9976    0.0857    0.26234   C
         C         0.9143    0.9119    0.929     C
         C         0.913     0.93      0.10314   C
         C         0.07      0.983     0.76981   C
         C         0.017     0.087     0.43647   C
         C         0.087     0.07      0.60314   C
         C         0.93      0.017     0.26981   C
         C         0.983     0.913     0.93647   C
         S         0.99958   0.09057   0.08589   S
         S         0.90943   0.90901   0.75256   S
         S         0.09099   0.00042   0.41922   S
         S         0.00042   0.90943   0.58589   S
         S         0.09057   0.09099   0.25256   S
         S         0.90901   0.99958   0.91922   S
         S         0.82336   0.00204   0.09366   S
         S         0.99796   0.82132   0.76033   S
         S         0.17868   0.17664   0.42699   S
         S         0.17664   0.99796   0.59366   S
         S         0.00204   0.17868   0.26033   S
         S         0.82132   0.82336   0.92699   S
         S         0.82646   0.83495   0.10927   S
         S         0.16505   0.99151   0.77594   S
         S         0.00849   0.17354   0.4426    S
         S         0.17354   0.16505   0.60927   S
         S         0.83495   0.00849   0.27594   S
         S         0.99151   0.82646   0.9426    S
         S         0.0025    0.92704   0.1069    S
         S         0.07296   0.07546   0.77357   S
         S         0.92454   0.9975    0.44023   S
         S         0.9975    0.07296   0.6069    S
         S         0.92704   0.92454   0.27357   S
         S         0.07546   0.0025    0.94023   S
         C         0.9518    0.1482    0.08672   C
         C         0.8518    0.8036    0.75339   C
         C         0.1964    0.0482    0.42005   C
         C         0.0482    0.8518    0.58672   C
         C         0.1482    0.1964    0.25339   C
         C         0.8036    0.9518    0.92005   C
         C         0.8716    0.1074    0.09047   C
         C         0.8926    0.7642    0.75714   C
         C         0.2358    0.1284    0.4238    C
         C         0.1284    0.8926    0.59047   C
         C         0.1074    0.2358    0.25714   C
         C         0.7642    0.8716    0.9238    C
         C         0.8775    0.7817    0.1254    C
         C         0.2183    0.0958    0.79207   C
         C         0.9042    0.1225    0.45873   C
         C         0.1225    0.2183    0.6254    C
         C         0.7817    0.9042    0.29207   C
         C         0.0958    0.8775    0.95873   C
         C         0.9577    0.8251    0.12576   C
         C         0.1749    0.1326    0.79243   C
         C         0.8674    0.0423    0.45909   C
         C         0.0423    0.1749    0.62576   C
         C         0.8251    0.8674    0.29243   C
         C         0.1326    0.9577    0.95909   C
         C         0.1201    0.3976    0.07438   C
         C         0.6024    0.7225    0.74105   C
         C         0.2775    0.8799    0.40771   C
         C         0.8799    0.6024    0.57438   C
         C         0.3976    0.2775    0.24105   C
         C         0.7225    0.1201    0.90771   C
         C         0.0587    0.3699    0.11969   C
         C         0.6301    0.6888    0.78636   C
         C         0.3112    0.9413    0.45302   C
         C         0.9413    0.6301    0.61969   C
         C         0.3699    0.3112    0.28636   C
         C         0.6888    0.0587    0.95302   C
         H         0.0555    0.4066    0.1482    H
         H         0.5934    0.6489    0.81487   H
         H         0.3511    0.9445    0.48153   H
         H         0.9445    0.5934    0.6482    H
         H         0.4066    0.3511    0.31487   H
         H         0.6489    0.0555    0.98153   H
         C         0.067     0.2636    0.03517   C
         C         0.7364    0.8034    0.70184   C
         C         0.1966    0.933     0.3685    C
         C         0.933     0.7364    0.53517   C
         C         0.2636    0.1966    0.20184   C
         C         0.8034    0.067     0.8685    C
         H         0.0699    0.2272    0.0062    H
         H         0.7728    0.8427    0.67287   H
         H         0.1573    0.9301    0.33953   H
         H         0.9301    0.7728    0.5062    H
         H         0.2272    0.1573    0.17287   H
         H         0.8427    0.0699    0.83953   H
         C         0.0068    0.2357    0.08122   C
         C         0.7643    0.7711    0.74789   C
         C         0.2289    0.9932    0.41455   C
         C         0.9932    0.7643    0.58122   C
         C         0.2357    0.2289    0.24789   C
         C         0.7711    0.0068    0.91455   C
         C         0.0027    0.2897    0.12328   C
         C         0.7103    0.713     0.78995   C
         C         0.287     0.9973    0.45661   C
         C         0.9973    0.7103    0.62328   C
         C         0.2897    0.287     0.28995   C
         C         0.713     0.0027    0.95661   C
         H         0.9613    0.2711    0.1545    H
         H         0.7289    0.6902    0.82117   H
         H         0.3098    0.0387    0.48783   H
         H         0.0387    0.7289    0.6545    H
         H         0.2711    0.3098    0.32117   H
         H         0.6902    0.9613    0.98783   H
         C         0.12267   0.34458   0.03141   C
         C         0.65542   0.77809   0.69808   C
         C         0.22191   0.87733   0.36474   C
         C         0.87733   0.65542   0.53141   C
         C         0.34458   0.22191   0.19808   C
         C         0.77809   0.12267   0.86474   C
         H         0.1628    0.3636    0.9991    H
         H         0.6364    0.7992    0.66577   H
         H         0.2008    0.8372    0.33243   H
         H         0.8372    0.6364    0.4991    H
         H         0.3636    0.2008    0.16577   H
         H         0.7992    0.1628    0.83243   H
         C         0.18523   0.48396   0.07199   C
         C         0.51604   0.70127   0.73866   C
         C         0.29873   0.81477   0.40532   C
         C         0.81477   0.51604   0.57199   C
         C         0.48396   0.29873   0.23866   C
         C         0.70127   0.18523   0.90532   C
         O         0.18233   0.53382   0.10875   O
         O         0.46618   0.64851   0.77542   O
         O         0.35149   0.81767   0.44208   O
         O         0.81767   0.46618   0.60875   O
         O         0.53382   0.35149   0.27542   O
         O         0.64851   0.18233   0.94208   O
         O         0.24154   0.50005   0.03327   O
         O         0.49995   0.74149   0.69994   O
         O         0.25851   0.75846   0.3666    O
         O         0.75846   0.49995   0.53327   O
         O         0.50005   0.25851   0.19994   O
         O         0.74149   0.24154   0.8666    O
         C         0.71498   0.20364   0.0951    C
         C         0.79636   0.51134   0.76177   C
         C         0.48866   0.28502   0.42843   C
         C         0.28502   0.79636   0.5951    C
         C         0.20364   0.48866   0.26177   C
         C         0.51134   0.71498   0.92843   C
         C         0.77766   0.23362   0.05161   C
         C         0.76638   0.54404   0.71828   C
         C         0.45596   0.22234   0.38494   C
         C         0.22234   0.76638   0.55161   C
         C         0.23362   0.45596   0.21828   C
         C         0.54404   0.77766   0.88494   C
         H         0.7855    0.2753    0.0231    H
         H         0.7247    0.5102    0.68977   H
         H         0.4898    0.2145    0.35643   H
         H         0.2145    0.7247    0.5231    H
         H         0.2753    0.4898    0.18977   H
         H         0.5102    0.7855    0.85643   H
         C         0.8291    0.2027    0.0497    C
         C         0.7973    0.6264    0.71637   C
         C         0.3736    0.1709    0.38303   C
         C         0.1709    0.7973    0.5497    C
         C         0.2027    0.3736    0.21637   C
         C         0.6264    0.8291    0.88303   C
         H         0.8723    0.2235    0.02      H
         H         0.7765    0.6488    0.68667   H
         H         0.3512    0.1277    0.35333   H
         H         0.1277    0.7765    0.52      H
         H         0.2235    0.3512    0.18667   H
         H         0.6488    0.8723    0.85333   H
         C         0.8173    0.1409    0.09165   C
         C         0.8591    0.6764    0.75832   C
         C         0.3236    0.1827    0.42498   C
         C         0.1827    0.8591    0.59165   C
         C         0.1409    0.3236    0.25832   C
         C         0.6764    0.8173    0.92498   C
         C         0.7543    0.1114    0.13557   C
         C         0.8886    0.6429    0.80224   C
         C         0.3571    0.2457    0.4689    C
         C         0.2457    0.8886    0.63557   C
         C         0.1114    0.3571    0.30224   C
         C         0.6429    0.7543    0.9689    C
         H         0.7465    0.0701    0.1645    H
         H         0.9299    0.6764    0.83117   H
         H         0.3236    0.2535    0.49783   H
         H         0.2535    0.9299    0.6645    H
         H         0.0701    0.3236    0.33117   H
         H         0.6764    0.7465    0.99783   H
         C         0.7031    0.1422    0.13712   C
         C         0.8578    0.5609    0.80379   C
         C         0.4391    0.2969    0.47045   C
         C         0.2969    0.8578    0.63712   C
         C         0.1422    0.4391    0.30379   C
         C         0.5609    0.7031    0.97045   C
         H         0.6599    0.1216    0.1668    H
         H         0.8784    0.5383    0.83347   H
         H         0.4617    0.3401    0.50013   H
         H         0.3401    0.8784    0.6668    H
         H         0.1216    0.4617    0.33347   H
         H         0.5383    0.6599    0.00013   H
         C         0.6589    0.2352    0.09793   C
         C         0.7648    0.4237    0.7646    C
         C         0.5763    0.3411    0.43126   C
         C         0.3411    0.7648    0.59793   C
         C         0.2352    0.5763    0.2646    C
         C         0.4237    0.6589    0.93126   C
         O         0.60672   0.2122    0.14146   O
         O         0.7878    0.39452   0.80813   O
         O         0.60548   0.39328   0.47479   O
         O         0.39328   0.7878    0.64146   O
         O         0.2122    0.60548   0.30813   O
         O         0.39452   0.60672   0.97479   O
         O         0.66453   0.28747   0.05751   O
         O         0.71253   0.37706   0.72418   O
         O         0.62294   0.33547   0.39084   O
         O         0.33547   0.71253   0.55751   O
         O         0.28747   0.62294   0.22418   O
         O         0.37706   0.66453   0.89084   O
         C         0.7244    0.5279    0.14578   C
         C         0.4721    0.1965    0.81245   C
         C         0.8035    0.2756    0.47911   C
         C         0.2756    0.4721    0.64578   C
         C         0.5279    0.8035    0.31245   C
         C         0.1965    0.7244    0.97911   C
         C         0.792     0.5685    0.18398   C
         C         0.4315    0.2235    0.85065   C
         C         0.7765    0.208     0.51731   C
         C         0.208     0.4315    0.68398   C
         C         0.5685    0.7765    0.35065   C
         C         0.2235    0.792     0.01731   C
         H         0.8043    0.5396    0.2145    H
         H         0.4604    0.2647    0.88117   H
         H         0.7353    0.1957    0.54783   H
         H         0.1957    0.4604    0.7145    H
         H         0.5396    0.7353    0.38117   H
         H         0.2647    0.8043    0.04783   H
         C         0.8417    0.6505    0.17819   C
         C         0.3495    0.1912    0.84486   C
         C         0.8088    0.1583    0.51152   C
         C         0.1583    0.3495    0.67819   C
         C         0.6505    0.8088    0.34486   C
         C         0.1912    0.8417    0.01152   C
         H         0.8875    0.6774    0.2049    H
         H         0.3226    0.2101    0.87157   H
         H         0.7899    0.1125    0.53823   H
         H         0.1125    0.3226    0.7049    H
         H         0.6774    0.7899    0.37157   H
         H         0.2101    0.8875    0.03823   H
         C         0.825     0.694     0.13342   C
         C         0.306     0.131     0.80009   C
         C         0.869     0.175     0.46675   C
         C         0.175     0.306     0.63342   C
         C         0.694     0.869     0.30009   C
         C         0.131     0.825     0.96675   C
         C         0.756     0.6531    0.09587   C
         C         0.3469    0.1029    0.76254   C
         C         0.8971    0.244     0.4292    C
         C         0.244     0.3469    0.59587   C
         C         0.6531    0.8971    0.26254   C
         C         0.1029    0.756     0.9292    C
         H         0.7428    0.682     0.066     H
         H         0.318     0.0608    0.73267   H
         H         0.9392    0.2572    0.39933   H
         H         0.2572    0.318     0.566     H
         H         0.682     0.9392    0.23267   H
         H         0.0608    0.7428    0.89933   H
         C         0.7067    0.5715    0.10165   C
         C         0.4285    0.1352    0.76832   C
         C         0.8648    0.2933    0.43498   C
         C         0.2933    0.4285    0.60165   C
         C         0.5715    0.8648    0.26832   C
         C         0.1352    0.7067    0.93498   C
         H         0.6604    0.5447    0.0754    H
         H         0.4553    0.1157    0.74207   H
         H         0.8843    0.3396    0.40873   H
         H         0.3396    0.4553    0.5754    H
         H         0.5447    0.8843    0.24207   H
         H         0.1157    0.6604    0.90873   H
         C         0.672     0.4394    0.15091   C
         C         0.5606    0.2326    0.81758   C
         C         0.7674    0.328     0.48424   C
         C         0.328     0.5606    0.65091   C
         C         0.4394    0.7674    0.31758   C
         C         0.2326    0.672     0.98424   C
         O         0.61497   0.40465   0.11017   O
         O         0.59535   0.21032   0.77684   O
         O         0.78968   0.38503   0.4435    O
         O         0.38503   0.59535   0.61017   O
         O         0.40465   0.78968   0.27684   O
         O         0.21032   0.61497   0.9435    O
         O         0.68466   0.40076   0.19351   O
         O         0.59924   0.2839    0.86018   O
         O         0.7161    0.31534   0.52684   O
         O         0.31534   0.59924   0.69351   O
         O         0.40076   0.7161    0.36018   O
         O         0.2839    0.68466   0.02684   O
         C         0.1305    0.7537    0.16457   C
         C         0.2463    0.3768    0.83124   C
         C         0.6232    0.8695    0.4979    C
         C         0.8695    0.2463    0.66457   C
         C         0.7537    0.6232    0.33124   C
         C         0.3768    0.1305    0.9979    C
         C         0.1349    0.8202    0.19379   C
         C         0.1798    0.3147    0.86046   C
         C         0.6853    0.8651    0.52712   C
         C         0.8651    0.1798    0.69379   C
         C         0.8202    0.6853    0.36046   C
         C         0.3147    0.1349    0.02712   C
         H         0.177     0.8505    0.2232    H
         H         0.1495    0.3265    0.88987   H
         H         0.6735    0.823     0.55653   H
         H         0.823     0.1495    0.7232    H
         H         0.8505    0.6735    0.38987   H
         H         0.3265    0.177     0.05653   H
         C         0.0789    0.8432    0.18082   C
         C         0.1568    0.2357    0.84749   C
         C         0.7643    0.9211    0.51415   C
         C         0.9211    0.1568    0.68082   C
         C         0.8432    0.7643    0.34749   C
         C         0.2357    0.0789    0.01415   C
         H         0.0833    0.8895    0.2006    H
         H         0.1105    0.1938    0.86727   H
         H         0.8062    0.9167    0.53393   H
         H         0.9167    0.1105    0.7006    H
         H         0.8895    0.8062    0.36727   H
         H         0.1938    0.0833    0.03393   H
         C         0.0167    0.7984    0.13892   C
         C         0.2016    0.2183    0.80559   C
         C         0.7817    0.9833    0.47225   C
         C         0.9833    0.2016    0.63892   C
         C         0.7984    0.7817    0.30559   C
         C         0.2183    0.0167    0.97225   C
         C         0.0125    0.7325    0.10833   C
         C         0.2675    0.28      0.775     C
         C         0.72      0.9875    0.44166   C
         C         0.9875    0.2675    0.60833   C
         C         0.7325    0.72      0.275     C
         C         0.28      0.0125    0.94166   C
         H         0.971     0.7026    0.0784    H
         H         0.2974    0.2684    0.74507   H
         H         0.7316    0.029     0.41173   H
         H         0.029     0.2974    0.5784    H
         H         0.7026    0.7316    0.24507   H
         H         0.2684    0.971     0.91173   H
         C         0.0693    0.7107    0.12173   C
         C         0.2893    0.3586    0.7884    C
         C         0.6414    0.9307    0.45506   C
         C         0.9307    0.2893    0.62173   C
         C         0.7107    0.6414    0.2884    C
         C         0.3586    0.0693    0.95506   C
         H         0.0661    0.6652    0.101     H
         H         0.3348    0.4009    0.76767   H
         H         0.5991    0.9339    0.43433   H
         H         0.9339    0.3348    0.601     H
         H         0.6652    0.5991    0.26767   H
         H         0.4009    0.0661    0.93433   H
         C         0.19      0.7283    0.1803    C
         C         0.2717    0.4617    0.84697   C
         C         0.5383    0.81      0.51363   C
         C         0.81      0.2717    0.6803    C
         C         0.7283    0.5383    0.34697   C
         C         0.4617    0.19      0.01363   C
         O         0.19245   0.67745   0.14533   O
         O         0.32255   0.515     0.812     O
         O         0.485     0.80755   0.47866   O
         O         0.80755   0.32255   0.64533   O
         O         0.67745   0.485     0.312     O
         O         0.515     0.19245   0.97866   O
         O         0.23346   0.76102   0.22982   O
         O         0.23898   0.47244   0.89649   O
         O         0.52756   0.76654   0.56315   O
         O         0.76654   0.23898   0.72982   O
         O         0.76102   0.52756   0.39649   O
         O         0.47244   0.23346   0.06315   O
         Zn        0.56431   0.28715   0.12013   Zn
         Zn        0.71285   0.27716   0.7868    Zn
         Zn        0.72284   0.43569   0.45346   Zn
         Zn        0.43569   0.71285   0.62013   Zn
         Zn        0.28715   0.72284   0.2868    Zn
         Zn        0.27716   0.56431   0.95346   Zn
         Zn        0.63113   0.27772   0.95719   Zn
         Zn        0.72228   0.35341   0.62386   Zn
         Zn        0.64659   0.36887   0.29052   Zn
         Zn        0.36887   0.72228   0.45719   Zn
         Zn        0.27772   0.64659   0.12386   Zn
         Zn        0.35341   0.63113   0.79052   Zn
         O         0.60855   0.3723    0.97558   O
         O         0.6277    0.23625   0.64225   O
         O         0.76375   0.39145   0.30891   O
         O         0.39145   0.6277    0.47558   O
         O         0.3723    0.76375   0.14225   O
         O         0.23625   0.60855   0.80891   O
         H         0.618     0.388     0.0145    H
         H         0.612     0.23      0.68117   H
         H         0.77      0.382     0.34783   H
         H         0.382     0.612     0.5145    H
         H         0.388     0.77      0.18117   H
         H         0.23      0.618     0.84783   H
         H         0.631     0.4015    0.9456    H
         H         0.5985    0.2295    0.61227   H
         H         0.7705    0.369     0.27893   H
         H         0.369     0.5985    0.4456    H
         H         0.4015    0.7705    0.11227   H
         H         0.2295    0.631     0.77893   H
         O         0.74877   0.36809   0.94302   O
         O         0.63191   0.38068   0.60969   O
         O         0.61932   0.25123   0.27635   O
         O         0.25123   0.63191   0.44302   O
         O         0.36809   0.61932   0.10969   O
         O         0.38068   0.74877   0.77635   O
         H         0.761     0.362     0.9066    H
         H         0.638     0.399     0.57327   H
         H         0.601     0.239     0.23993   H
         H         0.239     0.638     0.4066    H
         H         0.362     0.601     0.07327   H
         H         0.399     0.761     0.73993   H
         H         0.755     0.4144    0.952     H
         H         0.5856    0.3406    0.61867   H
         H         0.6594    0.245     0.28533   H
         H         0.245     0.5856    0.452     H
         H         0.4144    0.6594    0.11867   H
         H         0.3406    0.755     0.78533   H
         O         0.35888   0.89604   0.136     O
         O         0.10396   0.46284   0.80267   O
         O         0.53716   0.64112   0.46933   O
         O         0.64112   0.10396   0.636     O
         O         0.89604   0.53716   0.30267   O
         O         0.46284   0.35888   0.96933   O
         C         0.3779    0.9288    0.188     C
         C         0.0712    0.4491    0.85467   C
         C         0.5509    0.6221    0.52133   C
         C         0.6221    0.0712    0.688     C
         C         0.9288    0.5509    0.35467   C
         C         0.4491    0.3779    0.02133   C
         H         0.3913    0.9031    0.2206    H
         H         0.0969    0.4882    0.88727   H
         H         0.5118    0.6087    0.55393   H
         H         0.6087    0.0969    0.7206    H
         H         0.9031    0.5118    0.38727   H
         H         0.4882    0.3913    0.05393   H
         N         0.3817    0.9981    0.2031    N
         N         0.0019    0.3836    0.86977   N
         N         0.6164    0.6183    0.53643   N
         N         0.6183    0.0019    0.7031    N
         N         0.9981    0.6164    0.36977   N
         N         0.3836    0.3817    0.03643   N
         C         0.4051    0.0331    0.2663    C
         C         0.9669    0.372     0.93297   C
         C         0.628     0.5949    0.59963   C
         C         0.5949    0.9669    0.7663    C
         C         0.0331    0.628     0.43297   C
         C         0.372     0.4051    0.09963   C
         H         0.3591    0.0315    0.2878    H
         H         0.9685    0.3276    0.95447   H
         H         0.6724    0.6409    0.62113   H
         H         0.6409    0.9685    0.7878    H
         H         0.0315    0.6724    0.45447   H
         H         0.3276    0.3591    0.12113   H
         H         0.4483    0.0888    0.2624    H
         H         0.9112    0.3595    0.92907   H
         H         0.6405    0.5517    0.59573   H
         H         0.5517    0.9112    0.7624    H
         H         0.0888    0.6405    0.42907   H
         H         0.3595    0.4483    0.09573   H
         H         0.4238    0.0028    0.2916    H
         H         0.9972    0.421     0.95827   H
         H         0.579     0.5762    0.62493   H
         H         0.5762    0.9972    0.7916    H
         H         0.0028    0.579     0.45827   H
         H         0.421     0.4238    0.12493   H
         C         0.3599    0.0383    0.1558    C
         C         0.9617    0.3216    0.82247   C
         C         0.6784    0.6401    0.48913   C
         C         0.6401    0.9617    0.6558    C
         C         0.0383    0.6784    0.32247   C
         C         0.3216    0.3599    0.98913   C
         H         0.3388    0.0045    0.1176    H
         H         0.9955    0.3343    0.78427   H
         H         0.6657    0.6612    0.45093   H
         H         0.6612    0.9955    0.6176    H
         H         0.0045    0.6657    0.28427   H
         H         0.3343    0.3388    0.95093   H
         H         0.4072    0.0892    0.1441    H
         H         0.9108    0.318     0.81077   H
         H         0.682     0.5928    0.47743   H
         H         0.5928    0.9108    0.6441    H
         H         0.0892    0.682     0.31077   H
         H         0.318     0.4072    0.97743   H
         H         0.3188    0.0486    0.1736    H
         H         0.9514    0.2702    0.84027   H
         H         0.7298    0.6812    0.50693   H
         H         0.6812    0.9514    0.6736    H
         H         0.0486    0.7298    0.34027   H
         H         0.2702    0.3188    0.00693   H
         O         0.6655    0.5691    0.9465    O
         O         0.4309    0.0964    0.61317   O
         O         0.9036    0.3345    0.27983   O
         O         0.3345    0.4309    0.4465    O
         O         0.5691    0.9036    0.11317   O
         O         0.0964    0.6655    0.77983   O
         C         0.5981    0.5451    0.9246    C
         C         0.4549    0.053     0.59127   C
         C         0.947     0.4019    0.25793   C
         C         0.4019    0.4549    0.4246    C
         C         0.5451    0.947     0.09127   C
         C         0.053     0.5981    0.75793   C
         H         0.5634    0.5577    0.9477    H
         H         0.4423    0.0057    0.61437   H
         H         0.9943    0.4366    0.28103   H
         H         0.4366    0.4423    0.4477    H
         H         0.5577    0.9943    0.11437   H
         H         0.0057    0.5634    0.78103   H
         N         0.5696    0.502     0.86989   N
         N         0.498     0.0676    0.53656   N
         N         0.9324    0.4304    0.20322   N
         N         0.4304    0.498     0.36989   N
         N         0.502     0.9324    0.03656   N
         N         0.0676    0.5696    0.70322   N
         C         0.6192    0.4815    0.835     C
         C         0.5185    0.1377    0.50167   C
         C         0.8623    0.3808    0.16833   C
         C         0.3808    0.5185    0.335     C
         C         0.4815    0.8623    0.00167   C
         C         0.1377    0.6192    0.66833   C
         H         0.6719    0.5054    0.8555    H
         H         0.4946    0.1665    0.52217   H
         H         0.8335    0.3281    0.18883   H
         H         0.3281    0.4946    0.3555    H
         H         0.5054    0.8335    0.02217   H
         H         0.1665    0.6719    0.68883   H
         H         0.6251    0.5017    0.791     H
         H         0.4983    0.1234    0.45767   H
         H         0.8766    0.3749    0.12433   H
         H         0.3749    0.4983    0.291     H
         H         0.5017    0.8766    0.95767   H
         H         0.1234    0.6251    0.62433   H
         H         0.5951    0.4232    0.8342    H
         H         0.5768    0.1719    0.50087   H
         H         0.8281    0.4049    0.16753   H
         H         0.4049    0.5768    0.3342    H
         H         0.4232    0.8281    0.00087   H
         H         0.1719    0.5951    0.66753   H
         C         0.4915    0.4779    0.8486    C
         C         0.5221    0.0136    0.51527   C
         C         0.9864    0.5085    0.18193   C
         C         0.5085    0.5221    0.3486    C
         C         0.4779    0.9864    0.01527   C
         C         0.0136    0.4915    0.68193   C
         H         0.46      0.4193    0.8474    H
         H         0.5807    0.0407    0.51407   H
         H         0.9593    0.54      0.18073   H
         H         0.54      0.5807    0.3474    H
         H         0.4193    0.9593    0.01407   H
         H         0.0407    0.46      0.68073   H
         H         0.4938    0.4993    0.8055    H
         H         0.5007    0.9945    0.47217   H
         H         0.0055    0.5062    0.13883   H
         H         0.5062    0.5007    0.3055    H
         H         0.4993    0.0055    0.97217   H
         H         0.9945    0.4938    0.63883   H
         H         0.4663    0.4983    0.8782    H
         H         0.5017    0.968     0.54487   H
         H         0.032     0.5337    0.21153   H
         H         0.5337    0.5017    0.3782    H
         H         0.4983    0.032     0.04487   H
         H         0.968     0.4663    0.71153   H
         O         0.77632   0.5178    0.96657   O
         O         0.4822    0.25852   0.63324   O
         O         0.74148   0.22368   0.2999    O
         O         0.22368   0.4822    0.46657   O
         O         0.5178    0.74148   0.13324   O
         O         0.25852   0.77632   0.7999    O
         H         0.7443    0.5345    0.9598    H
         H         0.4655    0.2098    0.62647   H
         H         0.7902    0.2557    0.29313   H
         H         0.2557    0.4655    0.4598    H
         H         0.5345    0.7902    0.12647   H
         H         0.2098    0.7443    0.79313   H
         C         0.8528    0.5835    0.9835    C
         C         0.4165    0.2693    0.65017   C
         C         0.7307    0.1472    0.31683   C
         C         0.1472    0.4165    0.4835    C
         C         0.5835    0.7307    0.15017   C
         C         0.2693    0.8528    0.81683   C
         H         0.8489    0.6083    0.024     H
         H         0.3917    0.2406    0.69067   H
         H         0.7594    0.1511    0.35733   H
         H         0.1511    0.3917    0.524     H
         H         0.6083    0.7594    0.19067   H
         H         0.2406    0.8489    0.85733   H
         H         0.8726    0.6246    0.9493    H
         H         0.3754    0.248     0.61597   H
         H         0.752     0.1274    0.28263   H
         H         0.1274    0.3754    0.4493    H
         H         0.6246    0.752     0.11597   H
         H         0.248     0.8726    0.78263   H
         C         0.9089    0.5511    0.9919    C
         C         0.4489    0.3578    0.65857   C
         C         0.6422    0.0911    0.32523   C
         C         0.0911    0.4489    0.4919    C
         C         0.5511    0.6422    0.15857   C
         C         0.3578    0.9089    0.82523   C
         H         0.9619    0.5946    0.0046    H
         H         0.4054    0.3673    0.67127   H
         H         0.6327    0.0381    0.33793   H
         H         0.0381    0.4054    0.5046    H
         H         0.5946    0.6327    0.17127   H
         H         0.3673    0.9619    0.83793   H
         H         0.9133    0.5279    0.9513    H
         H         0.4721    0.3854    0.61797   H
         H         0.6146    0.0867    0.28463   H
         H         0.0867    0.4721    0.4513    H
         H         0.5279    0.6146    0.11797   H
         H         0.3854    0.9133    0.78463   H
         H         0.8881    0.5097    0.0252    H
         H         0.4903    0.3784    0.69187   H
         H         0.6216    0.1119    0.35853   H
         H         0.1119    0.4903    0.5252    H
         H         0.5097    0.6216    0.19187   H
         H         0.3784    0.8881    0.85853   H
