
##########################################################################
#               Crystallographic Information Format file
#               Produced by PyCifRW module
#
#  This is a CIF file.  CIF has been adopted by the International
#  Union of Crystallography as the standard for data archiving and
#  transmission.
#
#  For information on this file format, follow the CIF links at
#  http://www.iucr.org
##########################################################################

data_image0

_cell_length_a                          10.0952
_cell_length_b                          20.8523
_cell_length_c                          17.1268
_cell_angle_alpha                       90.0
_cell_angle_beta                        90.58
_cell_angle_gamma                       90.0
_symmetry_int_tables_number             1
loop_
  _symmetry_equiv_pos_as_xyz
         'x, y, z'
loop_
  _atom_site_label
  _atom_site_fract_x
  _atom_site_fract_y
  _atom_site_fract_z
  _atom_site_type_symbol
         Ca        0.18969   0.3355    0.68194   Ca
         Ca        0.81031   0.8355    0.81806   Ca
         Ca        0.81031   0.6645    0.31806   Ca
         Ca        0.18969   0.1645    0.18194   Ca
         Ca        0.78408   0.31886   0.80404   Ca
         Ca        0.21592   0.81886   0.69596   Ca
         Ca        0.21592   0.68114   0.19596   Ca
         Ca        0.78408   0.18114   0.30404   Ca
         O         0.0023    0.391     0.6461    O
         O         0.9977    0.891     0.8539    O
         O         0.9977    0.609     0.3539    O
         O         0.0023    0.109     0.1461    O
         O         0.7996    0.3837    0.6958    O
         O         0.2004    0.8837    0.8042    O
         O         0.2004    0.6163    0.3042    O
         O         0.7996    0.1163    0.1958    O
         O         0.1707    0.3725    0.8077    O
         O         0.8293    0.8725    0.6923    O
         O         0.8293    0.6275    0.1923    O
         O         0.1707    0.1275    0.3077    O
         O         0.9696    0.3638    0.8597    O
         O         0.0304    0.8638    0.6403    O
         O         0.0304    0.6362    0.1403    O
         O         0.9696    0.1362    0.3597    O
         O         0.3941    0.2929    0.7046    O
         O         0.6059    0.7929    0.7954    O
         O         0.6059    0.7071    0.2954    O
         O         0.3941    0.2071    0.2046    O
         O         0.5883    0.277     0.7621    O
         O         0.4117    0.777     0.7379    O
         O         0.4117    0.723     0.2379    O
         O         0.5883    0.223     0.2621    O
         O         0.8951    0.2296    0.7625    O
         O         0.1049    0.7296    0.7375    O
         O         0.1049    0.7704    0.2375    O
         O         0.8951    0.2704    0.2625    O
         O         0.0821    0.24      0.6944    O
         O         0.9179    0.74      0.8056    O
         O         0.9179    0.76      0.3056    O
         O         0.0821    0.26      0.1944    O
         O         0.2108    0.3163    0.5461    O
         O         0.7892    0.8163    0.9539    O
         O         0.7892    0.6837    0.4539    O
         O         0.2108    0.1837    0.0461    O
         O         0.2988    0.43448   0.6582    O
         O         0.7012    0.93448   0.8418    O
         O         0.7012    0.56552   0.3418    O
         O         0.2988    0.06552   0.1582    O
         O         0.6701    0.4068    0.8612    O
         O         0.3299    0.9068    0.6388    O
         O         0.3299    0.5932    0.1388    O
         O         0.6701    0.0932    0.3612    O
         O         0.7493    0.27      0.9262    O
         O         0.2507    0.77      0.5738    O
         O         0.2507    0.73      0.0738    O
         O         0.7493    0.23      0.4262    O
         F         0.7443    0.46      0.5684    F
         F         0.2557    0.96      0.9316    F
         F         0.2557    0.54      0.4316    F
         F         0.7443    0.04      0.0684    F
         F         0.7957    0.5112    0.6569    F
         F         0.2043    0.0112    0.8431    F
         F         0.2043    0.4888    0.3431    F
         F         0.7957    0.9888    0.1569    F
         F         0.9274    0.495     0.5757    F
         F         0.0726    0.995     0.9243    F
         F         0.0726    0.505     0.4243    F
         F         0.9274    0.005     0.0757    F
         F         0.1597    0.4796    0.908     F
         F         0.8403    0.9796    0.592     F
         F         0.8403    0.5204    0.092     F
         F         0.1597    0.0204    0.408     F
         F         0.0512    0.423     0.9845    F
         F         0.9488    0.923     0.5155    F
         F         0.9488    0.577     0.0155    F
         F         0.0512    0.077     0.4845    F
         F         0.2427    0.3986    0.9582    F
         F         0.7573    0.8986    0.5418    F
         F         0.7573    0.6014    0.0418    F
         F         0.2427    0.1014    0.4582    F
         F         0.4161    0.1595    0.7634    F
         F         0.5839    0.6595    0.7366    F
         F         0.5839    0.8405    0.2366    F
         F         0.4161    0.3405    0.2634    F
         F         0.4135    0.1753    0.6503    F
         F         0.5865    0.6753    0.8497    F
         F         0.5865    0.8247    0.3497    F
         F         0.4135    0.3247    0.1503    F
         F         0.5839    0.1591    0.7064    F
         F         0.4161    0.6591    0.7936    F
         F         0.4161    0.8409    0.2936    F
         F         0.5839    0.3409    0.2064    F
         F         0.8893    0.1214    0.6643    F
         F         0.1107    0.6214    0.8357    F
         F         0.1107    0.8786    0.3357    F
         F         0.8893    0.3786    0.1643    F
         F         0.0866    0.1175    0.6756    F
         F         0.9134    0.6175    0.8244    F
         F         0.9134    0.8825    0.3244    F
         F         0.0866    0.3825    0.1756    F
         F         0.9763    0.1043    0.7634    F
         F         0.0237    0.6043    0.7366    F
         F         0.0237    0.8957    0.2366    F
         F         0.9763    0.3957    0.2634    F
         C         0.8868    0.4073    0.6556    C
         C         0.1132    0.9073    0.8444    C
         C         0.1132    0.5927    0.3444    C
         C         0.8868    0.0927    0.1556    C
         C         0.8449    0.4664    0.6095    C
         C         0.1551    0.9664    0.8905    C
         C         0.1551    0.5336    0.3905    C
         C         0.8449    0.0336    0.1095    C
         C         0.0851    0.3821    0.8571    C
         C         0.9149    0.8821    0.6429    C
         C         0.9149    0.6179    0.1429    C
         C         0.0851    0.1179    0.3571    C
         C         0.1326    0.4226    0.9263    C
         C         0.8674    0.9226    0.5737    C
         C         0.8674    0.5774    0.0737    C
         C         0.1326    0.0774    0.4263    C
         C         0.4858    0.2605    0.7279    C
         C         0.5142    0.7605    0.7721    C
         C         0.5142    0.7395    0.2721    C
         C         0.4858    0.2395    0.2279    C
         C         0.4741    0.1888    0.7117    C
         C         0.5259    0.6888    0.7883    C
         C         0.5259    0.8112    0.2883    C
         C         0.4741    0.3112    0.2117    C
         C         0.9885    0.2105    0.723     C
         C         0.0115    0.7105    0.777     C
         C         0.0115    0.7895    0.277     C
         C         0.9885    0.2895    0.223     C
         C         0.9847    0.1393    0.7041    C
         C         0.0153    0.6393    0.7959    C
         C         0.0153    0.8607    0.2959    C
         C         0.9847    0.3607    0.2041    C
         C         0.1805    0.3623    0.4862    C
         C         0.8195    0.8623    0.0138    C
         C         0.8195    0.6377    0.5138    C
         C         0.1805    0.1377    0.9862    C
         H         0.0883    0.3765    0.4905    H
         H         0.9117    0.8765    0.0095    H
         H         0.9117    0.6235    0.5095    H
         H         0.0883    0.1235    0.9905    H
         H         0.2383    0.3998    0.4915    H
         H         0.7617    0.8998    0.0085    H
         H         0.7617    0.6002    0.5085    H
         H         0.2383    0.1002    0.9915    H
         C         0.199     0.3343    0.4175    C
         C         0.801     0.8343    0.0825    C
         C         0.801     0.6657    0.5825    C
         C         0.199     0.1657    0.9175    C
         H         0.2732    0.3552    0.391     H
         H         0.7268    0.8552    0.109     H
         H         0.7268    0.6448    0.609     H
         H         0.2732    0.1448    0.891     H
         H         0.1196    0.3397    0.3849    H
         H         0.8804    0.8397    0.1151    H
         H         0.8804    0.6603    0.6151    H
         H         0.1196    0.1603    0.8849    H
         C         0.2264    0.2689    0.4263    C
         C         0.7736    0.7689    0.0737    C
         C         0.7736    0.7311    0.5737    C
         C         0.2264    0.2311    0.9263    C
         H         0.3107    0.2582    0.4017    H
         H         0.6893    0.7582    0.0983    H
         H         0.6893    0.7418    0.5983    H
         H         0.3107    0.2418    0.9017    H
         H         0.1561    0.2432    0.4018    H
         H         0.8439    0.7432    0.0982    H
         H         0.8439    0.7568    0.5982    H
         H         0.1561    0.2568    0.9018    H
         C         0.2333    0.2561    0.5092    C
         C         0.7667    0.7561    0.9908    C
         C         0.7667    0.7439    0.4908    C
         C         0.2333    0.2439    0.0092    C
         H         0.1654    0.225     0.5242    H
         H         0.8346    0.725     0.9758    H
         H         0.8346    0.775     0.4758    H
         H         0.1654    0.275     0.0242    H
         H         0.3205    0.239     0.5239    H
         H         0.6795    0.739     0.9761    H
         H         0.6795    0.761     0.4761    H
         H         0.3205    0.261     0.0239    H
         C         0.2444    0.4942    0.6855    C
         C         0.7556    0.9942    0.8145    C
         C         0.7556    0.5058    0.3145    C
         C         0.2444    0.0058    0.1855    C
         H         0.1493    0.4962    0.6736    H
         H         0.8507    0.9962    0.8264    H
         H         0.8507    0.5038    0.3264    H
         H         0.1493    0.0038    0.1736    H
         H         0.2568    0.498     0.7421    H
         H         0.7432    0.998     0.7579    H
         H         0.7432    0.502     0.2579    H
         H         0.2568    0.002     0.2421    H
         C         0.3119    0.5444    0.6468    C
         C         0.6881    0.0444    0.8532    C
         C         0.6881    0.4556    0.3532    C
         C         0.3119    0.9556    0.1468    C
         H         0.3306    0.5796    0.6832    H
         H         0.6694    0.0796    0.8168    H
         H         0.6694    0.4204    0.3168    H
         H         0.3306    0.9204    0.1832    H
         H         0.2574    0.561     0.6037    H
         H         0.7426    0.061     0.8963    H
         H         0.7426    0.439     0.3963    H
         H         0.2574    0.939     0.1037    H
         C         0.4322    0.5188    0.6177    C
         C         0.5678    0.0188    0.8823    C
         C         0.5678    0.4812    0.3823    C
         C         0.4322    0.9812    0.1177    C
         H         0.5078    0.5357    0.6476    H
         H         0.4922    0.0357    0.8524    H
         H         0.4922    0.4643    0.3524    H
         H         0.5078    0.9643    0.1476    H
         H         0.443     0.5305    0.5627    H
         H         0.557     0.0305    0.9373    H
         H         0.557     0.4695    0.4373    H
         H         0.443     0.9695    0.0627    H
         C         0.4248    0.4465    0.6262    C
         C         0.5752    0.9465    0.8738    C
         C         0.5752    0.5535    0.3738    C
         C         0.4248    0.0535    0.1262    C
         H         0.4334    0.4255    0.5753    H
         H         0.5666    0.9255    0.9247    H
         H         0.5666    0.5745    0.4247    H
         H         0.4334    0.0745    0.0753    H
         H         0.4951    0.4308    0.6611    H
         H         0.5049    0.9308    0.8389    H
         H         0.5049    0.5692    0.3389    H
         H         0.4951    0.0692    0.1611    H
         C         0.5378    0.4184    0.8625    C
         C         0.4622    0.9184    0.6375    C
         C         0.4622    0.5816    0.1375    C
         C         0.5378    0.0816    0.3625    C
         H         0.4975    0.3967    0.9072    H
         H         0.5025    0.8967    0.5928    H
         H         0.5025    0.6033    0.0928    H
         H         0.4975    0.1033    0.4072    H
         H         0.4954    0.4026    0.8145    H
         H         0.5046    0.9026    0.6855    H
         H         0.5046    0.5974    0.1855    H
         H         0.4954    0.0974    0.3145    H
         C         0.5214    0.4877    0.869     C
         C         0.4786    0.9877    0.631     C
         C         0.4786    0.5123    0.131     C
         C         0.5214    0.0123    0.369     C
         H         0.4824    0.5047    0.8206    H
         H         0.5176    0.0047    0.6794    H
         H         0.5176    0.4953    0.1794    H
         H         0.4824    0.9953    0.3206    H
         H         0.4616    0.4976    0.912     H
         H         0.5384    0.9976    0.588     H
         H         0.5384    0.5024    0.088     H
         H         0.4616    0.0024    0.412     H
         C         0.6396    0.5149    0.8822    C
         C         0.3604    0.0149    0.6178    C
         C         0.3604    0.4851    0.1178    C
         C         0.6396    0.9851    0.3822    C
         H         0.6405    0.5363    0.9331    H
         H         0.3595    0.0363    0.5669    H
         H         0.3595    0.4637    0.0669    H
         H         0.6405    0.9637    0.4331    H
         H         0.6576    0.5471    0.8419    H
         H         0.3424    0.0471    0.6581    H
         H         0.3424    0.4529    0.1581    H
         H         0.6576    0.9529    0.3419    H
         C         0.7325    0.4685    0.8807    C
         C         0.2675    0.9685    0.6193    C
         C         0.2675    0.5315    0.1193    C
         C         0.7325    0.0315    0.3807    C
         H         0.7766    0.4655    0.9318    H
         H         0.2234    0.9655    0.5682    H
         H         0.2234    0.5345    0.0682    H
         H         0.7766    0.0345    0.4318    H
         H         0.7996    0.4789    0.8417    H
         H         0.2004    0.9789    0.6583    H
         H         0.2004    0.5211    0.1583    H
         H         0.7996    0.0211    0.3417    H
         C         0.786     0.2959    0.0021    C
         C         0.214     0.7959    0.4979    C
         C         0.214     0.7041    0.9979    C
         C         0.786     0.2041    0.5021    C
         H         0.8794    0.3087    0.0027    H
         H         0.1206    0.8087    0.4973    H
         H         0.1206    0.6913    0.9973    H
         H         0.8794    0.1913    0.5027    H
         H         0.7318    0.3335    0.0141    H
         H         0.2682    0.8335    0.4859    H
         H         0.2682    0.6665    0.9859    H
         H         0.7318    0.1665    0.5141    H
         C         0.7639    0.2466    0.0577    C
         C         0.2361    0.7466    0.4423    C
         C         0.2361    0.7534    0.9423    C
         C         0.7639    0.2534    0.5577    C
         H         0.7319    0.2646    0.1069    H
         H         0.2681    0.7646    0.3931    H
         H         0.2681    0.7354    0.8931    H
         H         0.7319    0.2354    0.6069    H
         H         0.8459    0.2228    0.0683    H
         H         0.1541    0.7228    0.4317    H
         H         0.1541    0.7772    0.9317    H
         H         0.8459    0.2772    0.5683    H
         C         0.6642    0.2048    0.0226    C
         C         0.3358    0.7048    0.4774    C
         C         0.3358    0.7952    0.9774    C
         C         0.6642    0.2952    0.5226    C
         H         0.5746    0.2189    0.0356    H
         H         0.4254    0.7189    0.4644    H
         H         0.4254    0.7811    0.9644    H
         H         0.5746    0.2811    0.5356    H
         H         0.6761    0.1603    0.0396    H
         H         0.3239    0.6603    0.4604    H
         H         0.3239    0.8397    0.9604    H
         H         0.6761    0.3397    0.5396    H
         C         0.6889    0.2116    0.939     C
         C         0.3111    0.7116    0.561     C
         C         0.3111    0.7884    0.061     C
         C         0.6889    0.2884    0.439     C
         H         0.7462    0.1767    0.9211    H
         H         0.2538    0.6767    0.5789    H
         H         0.2538    0.8233    0.0789    H
         H         0.7462    0.3233    0.4211    H
         H         0.605     0.2094    0.9097    H
         H         0.395     0.7094    0.5903    H
         H         0.395     0.7906    0.0903    H
         H         0.605     0.2906    0.4097    H
