
##########################################################################
#               Crystallographic Information Format file
#               Produced by PyCifRW module
#
#  This is a CIF file.  CIF has been adopted by the International
#  Union of Crystallography as the standard for data archiving and
#  transmission.
#
#  For information on this file format, follow the CIF links at
#  http://www.iucr.org
##########################################################################

data_image0

_cell_length_a                          14.543
_cell_length_b                          8.3964
_cell_length_c                          15.251
_cell_angle_alpha                       90.0
_cell_angle_beta                        109.372
_cell_angle_gamma                       90.0
_symmetry_int_tables_number             1
loop_
  _symmetry_equiv_pos_as_xyz
         'x, y, z'
loop_
  _atom_site_label
  _atom_site_fract_x
  _atom_site_fract_y
  _atom_site_fract_z
  _atom_site_type_symbol
         Gd        0.70774   0.25235   0.9255    Gd
         Gd        0.70774   0.24765   0.4255    Gd
         Gd        0.29226   0.74765   0.0745    Gd
         Gd        0.29226   0.75235   0.5745    Gd
         C         0.6076    0.5166    0.1464    C
         C         0.6076    0.9834    0.6464    C
         C         0.3924    0.4834    0.8536    C
         C         0.3924    0.0166    0.3536    C
         C         0.6086    0.4031    0.0787    C
         C         0.6086    0.0969    0.5787    C
         C         0.3914    0.5969    0.9213    C
         C         0.3914    0.9031    0.4213    C
         O         0.6177    0.4052    0.0014    O
         O         0.6177    0.0948    0.5014    O
         O         0.3823    0.5948    0.9986    O
         O         0.3823    0.9052    0.4986    O
         C         0.5989    0.2702    0.1422    C
         C         0.5989    0.2298    0.6422    C
         C         0.4011    0.7298    0.8578    C
         C         0.4011    0.7702    0.3578    C
         O         0.5885    0.1257    0.1378    O
         O         0.5885    0.3743    0.6378    O
         O         0.4115    0.8743    0.8622    O
         O         0.4115    0.6257    0.3622    O
         C         0.6049    0.3987    0.2133    C
         C         0.6049    0.1013    0.7133    C
         C         0.3951    0.6013    0.7867    C
         C         0.3951    0.8987    0.2867    C
         O         0.609     0.3984    0.2963    O
         O         0.609     0.1016    0.7963    O
         O         0.391     0.6016    0.7037    O
         O         0.391     0.8984    0.2037    O
         C         0.6112    0.69      0.1488    C
         C         0.6112    0.81      0.6488    C
         C         0.3888    0.31      0.8512    C
         C         0.3888    0.19      0.3512    C
         H         0.6735    0.7245    0.19      H
         H         0.6735    0.7755    0.69      H
         H         0.3265    0.2755    0.81      H
         H         0.3265    0.2245    0.31      H
         H         0.5607    0.7296    0.1707    H
         H         0.5607    0.7704    0.6707    H
         H         0.4393    0.2704    0.8293    H
         H         0.4393    0.2296    0.3293    H
         H         0.6014    0.7303    0.0875    H
         H         0.6014    0.7697    0.5875    H
         H         0.3986    0.2697    0.9125    H
         H         0.3986    0.2303    0.4125    H
         C         0.8731    0.7526    0.9742    C
         C         0.8731    0.7474    0.4742    C
         C         0.1269    0.2474    0.0258    C
         C         0.1269    0.2526    0.5258    C
         C         0.8027    0.6311    0.9592    C
         C         0.8027    0.8689    0.4592    C
         C         0.1973    0.3689    0.0408    C
         C         0.1973    0.1311    0.5408    C
         O         0.8059    0.4821    0.967     O
         O         0.8059    0.0179    0.467     O
         O         0.1941    0.5179    0.033     O
         O         0.1941    0.9821    0.533     O
         C         0.7223    0.751     0.929     C
         C         0.7223    0.749     0.429     C
         C         0.2777    0.249     0.071     C
         C         0.2777    0.251     0.571     C
         O         0.634     0.751     0.8999    O
         O         0.634     0.749     0.3999    O
         O         0.366     0.249     0.1001    O
         O         0.366     0.251     0.6001    O
         C         0.8018    0.8744    0.9474    C
         C         0.8018    0.6256    0.4474    C
         C         0.1982    0.1256    0.0526    C
         C         0.1982    0.3744    0.5526    C
         O         0.8038    0.0217    0.9408    O
         O         0.8038    0.4783    0.4408    O
         O         0.1962    0.9783    0.0592    O
         O         0.1962    0.5217    0.5592    O
         C         0.9809    0.7524    0.006     C
         C         0.9809    0.7476    0.506     C
         C         0.0191    0.2476    0.994     C
         C         0.0191    0.2524    0.494     C
         H         0.0029    0.7417    0.9535    H
         H         0.0029    0.7583    0.4535    H
         H         0.9971    0.2583    0.0465    H
         H         0.9971    0.2417    0.5465    H
         H         0.0048    0.6645    0.0477    H
         H         0.0048    0.8355    0.5477    H
         H         0.9952    0.3355    0.9523    H
         H         0.9952    0.1645    0.4523    H
         H         0.0051    0.8503    0.0378    H
         H         0.0051    0.6497    0.5378    H
         H         0.9949    0.1497    0.9622    H
         H         0.9949    0.3503    0.4622    H
         O         0.7908    0.2758    0.8153    O
         O         0.7908    0.2242    0.3153    O
         O         0.2092    0.7242    0.1847    O
         O         0.2092    0.7758    0.6847    O
         H         0.8276    0.1906    0.8132    H
         H         0.8276    0.3094    0.3132    H
         H         0.1724    0.8094    0.1868    H
         H         0.1724    0.6906    0.6868    H
         H         0.8163    0.3716    0.81      H
         H         0.8163    0.1284    0.31      H
         H         0.1837    0.6284    0.19      H
         H         0.1837    0.8716    0.69      H
         O         0.6105    0.0595    0.9709    O
         O         0.6105    0.4405    0.4709    O
         O         0.3895    0.9405    0.0291    O
         O         0.3895    0.5595    0.5291    O
         H         0.5885    0.09      0.017     H
         H         0.5885    0.41      0.517     H
         H         0.4115    0.91      0.983     H
         H         0.4115    0.59      0.483     H
         H         0.6243    0.9578    0.9613    H
         H         0.6243    0.5422    0.4613    H
         H         0.3757    0.0422    0.0387    H
         H         0.3757    0.4578    0.5387    H
         O         0.6092    0.4462    0.821     O
         O         0.6092    0.0538    0.321     O
         O         0.3908    0.5538    0.179     O
         O         0.3908    0.9462    0.679     O
         H         0.5857    0.545     0.822     H
         H         0.5857    0.955     0.322     H
         H         0.4143    0.455     0.178     H
         H         0.4143    0.045     0.678     H
         H         0.6102    0.456     0.7626    H
         H         0.6102    0.044     0.2626    H
         H         0.3898    0.544     0.2374    H
         H         0.3898    0.956     0.7374    H
         O         0.8006    0.2296    0.0872    O
         O         0.8006    0.2704    0.5872    O
         O         0.1994    0.7704    0.9128    O
         O         0.1994    0.7296    0.4128    O
         H         0.8324    0.1402    0.1127    H
         H         0.8324    0.3598    0.6127    H
         H         0.1676    0.8598    0.8873    H
         H         0.1676    0.6402    0.3873    H
         H         0.8275    0.307     0.1287    H
         H         0.8275    0.193     0.6287    H
         H         0.1725    0.693     0.8713    H
         H         0.1725    0.807     0.3713    H
         N         0.8694    0.8839    0.2241    N
         N         0.8694    0.6161    0.7241    N
         N         0.1306    0.1161    0.7759    N
         N         0.1306    0.3839    0.2759    N
         O         0.9099    0.9938    0.2009    O
         O         0.9099    0.5062    0.7009    O
         O         0.0901    0.0062    0.7991    O
         O         0.0901    0.4938    0.2991    O
         O         0.8034    0.92      0.247     O
         O         0.8034    0.58      0.747     O
         O         0.1966    0.08      0.753     O
         O         0.1966    0.42      0.253     O
         O         0.907     0.7642    0.2321    O
         O         0.907     0.7358    0.7321    O
         O         0.093     0.2358    0.7679    O
         O         0.093     0.2642    0.2679    O
         O         0.8842    0.4382    0.2355    O
         O         0.8842    0.0618    0.7355    O
         O         0.1158    0.5618    0.7645    O
         O         0.1158    0.9382    0.2645    O
         H         0.8967    0.5413    0.251     H
         H         0.8967    0.9587    0.751     H
         H         0.1033    0.4587    0.749     H
         H         0.1033    0.0413    0.249     H
         H         0.9449    0.404     0.2426    H
         H         0.9449    0.096     0.7426    H
         H         0.0551    0.596     0.7574    H
         H         0.0551    0.904     0.2574    H
