data_image0
_cell_length_a       17.274
_cell_length_b       17.274
_cell_length_c       11.805
_cell_angle_alpha    90
_cell_angle_beta     90
_cell_angle_gamma    120

_symmetry_space_group_name_H-M    "P 1"
_symmetry_int_tables_number       1

loop_
  _symmetry_equiv_pos_as_xyz
  'x, y, z'

loop_
  _atom_site_label
  _atom_site_occupancy
  _atom_site_fract_x
  _atom_site_fract_y
  _atom_site_fract_z
  _atom_site_thermal_displace_type
  _atom_site_B_iso_or_equiv
  _atom_site_type_symbol
  C1       1.0000 0.52700  0.31720  0.43220  Biso   1.000  C
  C2       1.0000 0.68280  0.20980  0.43220  Biso   1.000  C
  C3       1.0000 0.79020  0.47300  0.43220  Biso   1.000  C
  C4       1.0000 0.47300  0.68280  0.93220  Biso   1.000  C
  C5       1.0000 0.20980  0.52700  0.93220  Biso   1.000  C
  C6       1.0000 0.31720  0.79020  0.06780  Biso   1.000  C
  C7       1.0000 0.68280  0.47300  0.93220  Biso   1.000  C
  C8       1.0000 0.79020  0.31720  0.93220  Biso   1.000  C
  C9       1.0000 0.52700  0.20980  0.93220  Biso   1.000  C
  C10      1.0000 0.31720  0.52700  0.43220  Biso   1.000  C
  C11      1.0000 0.20980  0.68280  0.43220  Biso   1.000  C
  C12      1.0000 0.47300  0.79020  0.43220  Biso   1.000  C
  C13      1.0000 0.47300  0.68280  0.56780  Biso   1.000  C
  C14      1.0000 0.31720  0.79020  0.56780  Biso   1.000  C
  C15      1.0000 0.20980  0.52700  0.56780  Biso   1.000  C
  C16      1.0000 0.52700  0.31720  0.06780  Biso   1.000  C
  C17      1.0000 0.79020  0.47300  0.06780  Biso   1.000  C
  C18      1.0000 0.68280  0.20980  0.06780  Biso   1.000  C
  C19      1.0000 0.31720  0.52700  0.06780  Biso   1.000  C
  C20      1.0000 0.20980  0.68280  0.06780  Biso   1.000  C
  C21      1.0000 0.47300  0.79020  0.06780  Biso   1.000  C
  C22      1.0000 0.68280  0.47300  0.56780  Biso   1.000  C
  C23      1.0000 0.79020  0.31720  0.56780  Biso   1.000  C
  C24      1.0000 0.52700  0.20980  0.56780  Biso   1.000  C
  C25      1.0000 0.43450  0.27060  0.43200  Biso   1.000  C
  C26      1.0000 0.72940  0.16390  0.43200  Biso   1.000  C
  C27      1.0000 0.83610  0.56550  0.43200  Biso   1.000  C
  C28      1.0000 0.56550  0.72940  0.93200  Biso   1.000  C
  C29      1.0000 0.16390  0.43450  0.93200  Biso   1.000  C
  C30      1.0000 0.27060  0.83610  0.06800  Biso   1.000  C
  C31      1.0000 0.72940  0.56550  0.93200  Biso   1.000  C
  C32      1.0000 0.83610  0.27060  0.93200  Biso   1.000  C
  C33      1.0000 0.43450  0.16390  0.93200  Biso   1.000  C
  C34      1.0000 0.27060  0.43450  0.43200  Biso   1.000  C
  C35      1.0000 0.16390  0.72940  0.43200  Biso   1.000  C
  C36      1.0000 0.56550  0.83610  0.43200  Biso   1.000  C
  C37      1.0000 0.56550  0.72940  0.56800  Biso   1.000  C
  C38      1.0000 0.27060  0.83610  0.56800  Biso   1.000  C
  C39      1.0000 0.16390  0.43450  0.56800  Biso   1.000  C
  C40      1.0000 0.43450  0.27060  0.06800  Biso   1.000  C
  C41      1.0000 0.83610  0.56550  0.06800  Biso   1.000  C
  C42      1.0000 0.72940  0.16390  0.06800  Biso   1.000  C
  C43      1.0000 0.27060  0.43450  0.06800  Biso   1.000  C
  C44      1.0000 0.16390  0.72940  0.06800  Biso   1.000  C
  C45      1.0000 0.56550  0.83610  0.06800  Biso   1.000  C
  C46      1.0000 0.72940  0.56550  0.56800  Biso   1.000  C
  C47      1.0000 0.83610  0.27060  0.56800  Biso   1.000  C
  C48      1.0000 0.43450  0.16390  0.56800  Biso   1.000  C
  C49      1.0000 0.57300  0.28650  0.50000  Biso   1.000  C
  C50      1.0000 0.71350  0.28650  0.50000  Biso   1.000  C
  C51      1.0000 0.71350  0.42700  0.50000  Biso   1.000  C
  C52      1.0000 0.42700  0.71350  0.00000  Biso   1.000  C
  C53      1.0000 0.28650  0.57300  0.00000  Biso   1.000  C
  C54      1.0000 0.28650  0.71350  0.00000  Biso   1.000  C
  C55      1.0000 0.71350  0.42700  0.00000  Biso   1.000  C
  C56      1.0000 0.71350  0.28650  0.00000  Biso   1.000  C
  C57      1.0000 0.57300  0.28650  0.00000  Biso   1.000  C
  C58      1.0000 0.28650  0.57300  0.50000  Biso   1.000  C
  C59      1.0000 0.28650  0.71350  0.50000  Biso   1.000  C
  C60      1.0000 0.42700  0.71350  0.50000  Biso   1.000  C
  C61      1.0000 0.38840  0.19420  0.50000  Biso   1.000  C
  C62      1.0000 0.80580  0.19420  0.50000  Biso   1.000  C
  C63      1.0000 0.80580  0.61160  0.50000  Biso   1.000  C
  C64      1.0000 0.61160  0.80580  0.00000  Biso   1.000  C
  C65      1.0000 0.19420  0.38840  0.00000  Biso   1.000  C
  C66      1.0000 0.19420  0.80580  0.00000  Biso   1.000  C
  C67      1.0000 0.80580  0.61160  0.00000  Biso   1.000  C
  C68      1.0000 0.80580  0.19420  0.00000  Biso   1.000  C
  C69      1.0000 0.38840  0.19420  0.00000  Biso   1.000  C
  C70      1.0000 0.19420  0.38840  0.50000  Biso   1.000  C
  C71      1.0000 0.19420  0.80580  0.50000  Biso   1.000  C
  C72      1.0000 0.61160  0.80580  0.50000  Biso   1.000  C
  C73      1.0000 0.28980  0.14490  0.50000  Biso   1.000  C
  C74      1.0000 0.85510  0.14490  0.50000  Biso   1.000  C
  C75      1.0000 0.85510  0.71020  0.50000  Biso   1.000  C
  C76      1.0000 0.71020  0.85510  0.00000  Biso   1.000  C
  C77      1.0000 0.14490  0.28980  0.00000  Biso   1.000  C
  C78      1.0000 0.14490  0.85510  0.00000  Biso   1.000  C
  C79      1.0000 0.85510  0.71020  0.00000  Biso   1.000  C
  C80      1.0000 0.85510  0.14490  0.00000  Biso   1.000  C
  C81      1.0000 0.28980  0.14490  0.00000  Biso   1.000  C
  C82      1.0000 0.14490  0.28980  0.50000  Biso   1.000  C
  C83      1.0000 0.14490  0.85510  0.50000  Biso   1.000  C
  C84      1.0000 0.71020  0.85510  0.50000  Biso   1.000  C
  H1       1.0000 0.56490  0.37700  0.38030  Biso   1.000  H
  H2       1.0000 0.62300  0.18790  0.38030  Biso   1.000  H
  H3       1.0000 0.81210  0.43510  0.38030  Biso   1.000  H
  H4       1.0000 0.43510  0.62300  0.88030  Biso   1.000  H
  H5       1.0000 0.18790  0.56490  0.88030  Biso   1.000  H
  H6       1.0000 0.37700  0.81210  0.11970  Biso   1.000  H
  H7       1.0000 0.62300  0.43510  0.88030  Biso   1.000  H
  H8       1.0000 0.81210  0.37700  0.88030  Biso   1.000  H
  H9       1.0000 0.56490  0.18790  0.88030  Biso   1.000  H
  H10      1.0000 0.37700  0.56490  0.38030  Biso   1.000  H
  H11      1.0000 0.18790  0.62300  0.38030  Biso   1.000  H
  H12      1.0000 0.43510  0.81210  0.38030  Biso   1.000  H
  H13      1.0000 0.43510  0.62300  0.61970  Biso   1.000  H
  H14      1.0000 0.37700  0.81210  0.61970  Biso   1.000  H
  H15      1.0000 0.18790  0.56490  0.61970  Biso   1.000  H
  H16      1.0000 0.56490  0.37700  0.11970  Biso   1.000  H
  H17      1.0000 0.81210  0.43510  0.11970  Biso   1.000  H
  H18      1.0000 0.62300  0.18790  0.11970  Biso   1.000  H
  H19      1.0000 0.37700  0.56490  0.11970  Biso   1.000  H
  H20      1.0000 0.18790  0.62300  0.11970  Biso   1.000  H
  H21      1.0000 0.43510  0.81210  0.11970  Biso   1.000  H
  H22      1.0000 0.62300  0.43510  0.61970  Biso   1.000  H
  H23      1.0000 0.81210  0.37700  0.61970  Biso   1.000  H
  H24      1.0000 0.56490  0.18790  0.61970  Biso   1.000  H
  H25      1.0000 0.39590  0.29120  0.37930  Biso   1.000  H
  H26      1.0000 0.70880  0.10470  0.37930  Biso   1.000  H
  H27      1.0000 0.89530  0.60410  0.37930  Biso   1.000  H
  H28      1.0000 0.60410  0.70880  0.87930  Biso   1.000  H
  H29      1.0000 0.10470  0.39590  0.87930  Biso   1.000  H
  H30      1.0000 0.29120  0.89530  0.12070  Biso   1.000  H
  H31      1.0000 0.70880  0.60410  0.87930  Biso   1.000  H
  H32      1.0000 0.89530  0.29120  0.87930  Biso   1.000  H
  H33      1.0000 0.39590  0.10470  0.87930  Biso   1.000  H
  H34      1.0000 0.29120  0.39590  0.37930  Biso   1.000  H
  H35      1.0000 0.10470  0.70880  0.37930  Biso   1.000  H
  H36      1.0000 0.60410  0.89530  0.37930  Biso   1.000  H
  H37      1.0000 0.60410  0.70880  0.62070  Biso   1.000  H
  H38      1.0000 0.29120  0.89530  0.62070  Biso   1.000  H
  H39      1.0000 0.10470  0.39590  0.62070  Biso   1.000  H
  H40      1.0000 0.39590  0.29120  0.12070  Biso   1.000  H
  H41      1.0000 0.89530  0.60410  0.12070  Biso   1.000  H
  H42      1.0000 0.70880  0.10470  0.12070  Biso   1.000  H
  H43      1.0000 0.29120  0.39590  0.12070  Biso   1.000  H
  H44      1.0000 0.10470  0.70880  0.12070  Biso   1.000  H
  H45      1.0000 0.60410  0.89530  0.12070  Biso   1.000  H
  H46      1.0000 0.70880  0.60410  0.62070  Biso   1.000  H
  H47      1.0000 0.89530  0.29120  0.62070  Biso   1.000  H
  H48      1.0000 0.39590  0.10470  0.62070  Biso   1.000  H
  H49      1.0000 0.20150  0.06480  0.25000  Biso   1.000  H
  H50      1.0000 0.93520  0.13670  0.25000  Biso   1.000  H
  H51      1.0000 0.86330  0.79850  0.25000  Biso   1.000  H
  H52      1.0000 0.79850  0.93520  0.75000  Biso   1.000  H
  H53      1.0000 0.13670  0.20150  0.75000  Biso   1.000  H
  H54      1.0000 0.06480  0.86330  0.25000  Biso   1.000  H
  H55      1.0000 0.93520  0.79850  0.75000  Biso   1.000  H
  H56      1.0000 0.86330  0.06480  0.75000  Biso   1.000  H
  H57      1.0000 0.20150  0.13670  0.75000  Biso   1.000  H
  H58      1.0000 0.06480  0.20150  0.25000  Biso   1.000  H
  H59      1.0000 0.13670  0.93520  0.25000  Biso   1.000  H
  H60      1.0000 0.79850  0.86330  0.25000  Biso   1.000  H
  H61      1.0000 0.06480  0.86330  0.75000  Biso   1.000  H
  N1       1.0000 0.66670  0.33330  0.50000  Biso   1.000  N
  N2       1.0000 0.33330  0.66670  0.00000  Biso   1.000  N
  N3       1.0000 0.66670  0.33330  0.00000  Biso   1.000  N
  N4       1.0000 0.33330  0.66670  0.50000  Biso   1.000  N
  O1       1.0000 0.25120  0.17010  0.42980  Biso   1.000  O
  O2       1.0000 0.82990  0.08110  0.42980  Biso   1.000  O
  O3       1.0000 0.91890  0.74880  0.42980  Biso   1.000  O
  O4       1.0000 0.74880  0.82990  0.92980  Biso   1.000  O
  O5       1.0000 0.08110  0.25120  0.92980  Biso   1.000  O
  O6       1.0000 0.17010  0.91890  0.07020  Biso   1.000  O
  O7       1.0000 0.82990  0.74880  0.92980  Biso   1.000  O
  O8       1.0000 0.91890  0.17010  0.92980  Biso   1.000  O
  O9       1.0000 0.25120  0.08110  0.92980  Biso   1.000  O
  O10      1.0000 0.17010  0.25120  0.42980  Biso   1.000  O
  O11      1.0000 0.08110  0.82990  0.42980  Biso   1.000  O
  O12      1.0000 0.74880  0.91890  0.42980  Biso   1.000  O
  O13      1.0000 0.74880  0.82990  0.57020  Biso   1.000  O
  O14      1.0000 0.17010  0.91890  0.57020  Biso   1.000  O
  O15      1.0000 0.08110  0.25120  0.57020  Biso   1.000  O
  O16      1.0000 0.25120  0.17010  0.07020  Biso   1.000  O
  O17      1.0000 0.91890  0.74880  0.07020  Biso   1.000  O
  O18      1.0000 0.82990  0.08110  0.07020  Biso   1.000  O
  O19      1.0000 0.17010  0.25120  0.07020  Biso   1.000  O
  O20      1.0000 0.08110  0.82990  0.07020  Biso   1.000  O
  O21      1.0000 0.74880  0.91890  0.07020  Biso   1.000  O
  O22      1.0000 0.82990  0.74880  0.57020  Biso   1.000  O
  O23      1.0000 0.91890  0.17010  0.57020  Biso   1.000  O
  O24      1.0000 0.25120  0.08110  0.57020  Biso   1.000  O
  O25      1.0000 0.16730  0.09530  0.25000  Biso   1.000  O
  O26      1.0000 0.90470  0.07200  0.25000  Biso   1.000  O
  O27      1.0000 0.92800  0.83270  0.25000  Biso   1.000  O
  O28      1.0000 0.83270  0.90470  0.75000  Biso   1.000  O
  O29      1.0000 0.07200  0.16730  0.75000  Biso   1.000  O
  O30      1.0000 0.09530  0.92800  0.25000  Biso   1.000  O
  O31      1.0000 0.90470  0.83270  0.75000  Biso   1.000  O
  O32      1.0000 0.92800  0.09530  0.75000  Biso   1.000  O
  O33      1.0000 0.16730  0.07200  0.75000  Biso   1.000  O
  O34      1.0000 0.09530  0.16730  0.25000  Biso   1.000  O
  O35      1.0000 0.07200  0.90470  0.25000  Biso   1.000  O
  O36      1.0000 0.83270  0.92800  0.25000  Biso   1.000  O
  O37      1.0000 0.09530  0.92800  0.75000  Biso   1.000  O
  O38      1.0000 0.09920  0.09920  0.57300  Biso   1.000  O
  O39      1.0000 0.90080  0.00000  0.57300  Biso   1.000  O
  O40      1.0000 0.00000  0.90080  0.57300  Biso   1.000  O
  O41      1.0000 0.90080  0.90080  0.07300  Biso   1.000  O
  O42      1.0000 0.00000  0.09920  0.07300  Biso   1.000  O
  O43      1.0000 0.09920  0.00000  0.92700  Biso   1.000  O
  O44      1.0000 0.09920  0.00000  0.07300  Biso   1.000  O
  O45      1.0000 0.90080  0.90080  0.42700  Biso   1.000  O
  O46      1.0000 0.09920  0.00000  0.42700  Biso   1.000  O
  O47      1.0000 0.00000  0.09920  0.42700  Biso   1.000  O
  O48      1.0000 0.09920  0.09920  0.92700  Biso   1.000  O
  O49      1.0000 0.00000  0.90080  0.92700  Biso   1.000  O
  O50      1.0000 0.90080  0.00000  0.92700  Biso   1.000  O
  Ti1      1.0000 0.11680  0.11680  0.39410  Biso   1.000  Ti
  Ti2      1.0000 0.88320  0.00000  0.39410  Biso   1.000  Ti
  Ti3      1.0000 0.00000  0.88320  0.39410  Biso   1.000  Ti
  Ti4      1.0000 0.88320  0.88320  0.89410  Biso   1.000  Ti
  Ti5      1.0000 0.00000  0.11680  0.89410  Biso   1.000  Ti
  Ti6      1.0000 0.11680  0.00000  0.10590  Biso   1.000  Ti
  Ti7      1.0000 0.11680  0.00000  0.89410  Biso   1.000  Ti
  Ti8      1.0000 0.88320  0.88320  0.60590  Biso   1.000  Ti
  Ti9      1.0000 0.11680  0.00000  0.60590  Biso   1.000  Ti
  Ti10     1.0000 0.00000  0.11680  0.60590  Biso   1.000  Ti
  Ti11     1.0000 0.11680  0.11680  0.10590  Biso   1.000  Ti
  Ti12     1.0000 0.00000  0.88320  0.10590  Biso   1.000  Ti
  Ti13     1.0000 0.88320  0.00000  0.10590  Biso   1.000  Ti
