# generated using pymatgen
data_ZnH20C28(NO2)2
_symmetry_space_group_name_H-M   'P 1'
_cell_length_a   31.32560000
_cell_length_b   5.88880000
_cell_length_c   20.44850000
_cell_angle_alpha   90.00000000
_cell_angle_beta   102.22900000
_cell_angle_gamma   90.00000000
_symmetry_Int_Tables_number   1
_chemical_formula_structural   ZnH20C28(NO2)2
_chemical_formula_sum   'Zn4 H80 C112 N8 O16'
_cell_volume   3686.54442272
_cell_formula_units_Z   4
loop_
 _symmetry_equiv_pos_site_id
 _symmetry_equiv_pos_as_xyz
  1  'x, y, z'
loop_
 _atom_site_type_symbol
 _atom_site_label
 _atom_site_symmetry_multiplicity
 _atom_site_fract_x
 _atom_site_fract_y
 _atom_site_fract_z
 _atom_site_occupancy
  Zn  Zn0  1  0.50000000  0.32114000  0.25000000  1.0
  Zn  Zn1  1  0.00000000  0.82114000  0.25000000  1.0
  Zn  Zn2  1  0.50000000  0.67886000  0.75000000  1.0
  Zn  Zn3  1  0.00000000  0.17886000  0.75000000  1.0
  H  H4  1  0.42550000  0.32030000  0.13120000  1.0
  H  H5  1  0.36750000  0.54550000  0.08130000  1.0
  H  H6  1  0.40220000  0.99640000  0.23230000  1.0
  H  H7  1  0.45960000  0.76050000  0.27820000  1.0
  H  H8  1  0.33730000  0.07970000  0.14910000  1.0
  H  H9  1  0.32370000  0.81670000  0.03530000  1.0
  H  H10  1  0.29200000  0.33830000  0.10550000  1.0
  H  H11  1  0.26390000  0.91670000  0.94590000  1.0
  H  H12  1  0.52060000  0.81690000  0.41000000  1.0
  H  H13  1  0.46760000  0.35840000  0.48550000  1.0
  H  H14  1  0.92550000  0.82030000  0.13120000  1.0
  H  H15  1  0.86750000  0.04550000  0.08130000  1.0
  H  H16  1  0.90220000  0.49640000  0.23230000  1.0
  H  H17  1  0.95960000  0.26050000  0.27820000  1.0
  H  H18  1  0.83730000  0.57970000  0.14910000  1.0
  H  H19  1  0.82370000  0.31670000  0.03530000  1.0
  H  H20  1  0.79200000  0.83830000  0.10550000  1.0
  H  H21  1  0.76390000  0.41670000  0.94590000  1.0
  H  H22  1  0.02060000  0.31690000  0.41000000  1.0
  H  H23  1  0.96760000  0.85840000  0.48550000  1.0
  H  H24  1  0.57450000  0.32030000  0.36880000  1.0
  H  H25  1  0.63250000  0.54550000  0.41870000  1.0
  H  H26  1  0.59780000  0.99640000  0.26770000  1.0
  H  H27  1  0.54040000  0.76050000  0.22180000  1.0
  H  H28  1  0.66270000  0.07970000  0.35090000  1.0
  H  H29  1  0.67630000  0.81670000  0.46470000  1.0
  H  H30  1  0.70800000  0.33830000  0.39450000  1.0
  H  H31  1  0.73610000  0.91670000  0.55410000  1.0
  H  H32  1  0.47940000  0.81690000  0.09000000  1.0
  H  H33  1  0.53240000  0.35840000  0.01450000  1.0
  H  H34  1  0.07450000  0.82030000  0.36880000  1.0
  H  H35  1  0.13250000  0.04550000  0.41870000  1.0
  H  H36  1  0.09780000  0.49640000  0.26770000  1.0
  H  H37  1  0.04040000  0.26050000  0.22180000  1.0
  H  H38  1  0.16270000  0.57970000  0.35090000  1.0
  H  H39  1  0.17630000  0.31670000  0.46470000  1.0
  H  H40  1  0.20800000  0.83830000  0.39450000  1.0
  H  H41  1  0.23610000  0.41670000  0.55410000  1.0
  H  H42  1  0.97940000  0.31690000  0.09000000  1.0
  H  H43  1  0.03240000  0.85840000  0.01450000  1.0
  H  H44  1  0.57450000  0.67970000  0.86880000  1.0
  H  H45  1  0.63250000  0.45450000  0.91870000  1.0
  H  H46  1  0.59780000  0.00360000  0.76770000  1.0
  H  H47  1  0.54040000  0.23950000  0.72180000  1.0
  H  H48  1  0.66270000  0.92030000  0.85090000  1.0
  H  H49  1  0.67630000  0.18330000  0.96470000  1.0
  H  H50  1  0.70800000  0.66170000  0.89450000  1.0
  H  H51  1  0.73610000  0.08330000  0.05410000  1.0
  H  H52  1  0.47940000  0.18310000  0.59000000  1.0
  H  H53  1  0.53240000  0.64160000  0.51450000  1.0
  H  H54  1  0.07450000  0.17970000  0.86880000  1.0
  H  H55  1  0.13250000  0.95450000  0.91870000  1.0
  H  H56  1  0.09780000  0.50360000  0.76770000  1.0
  H  H57  1  0.04040000  0.73950000  0.72180000  1.0
  H  H58  1  0.16270000  0.42030000  0.85090000  1.0
  H  H59  1  0.17630000  0.68330000  0.96470000  1.0
  H  H60  1  0.20800000  0.16170000  0.89450000  1.0
  H  H61  1  0.23610000  0.58330000  0.05410000  1.0
  H  H62  1  0.97940000  0.68310000  0.59000000  1.0
  H  H63  1  0.03240000  0.14160000  0.51450000  1.0
  H  H64  1  0.42550000  0.67970000  0.63120000  1.0
  H  H65  1  0.36750000  0.45450000  0.58130000  1.0
  H  H66  1  0.40220000  0.00360000  0.73230000  1.0
  H  H67  1  0.45960000  0.23950000  0.77820000  1.0
  H  H68  1  0.33730000  0.92030000  0.64910000  1.0
  H  H69  1  0.32370000  0.18330000  0.53530000  1.0
  H  H70  1  0.29200000  0.66170000  0.60550000  1.0
  H  H71  1  0.26390000  0.08330000  0.44590000  1.0
  H  H72  1  0.52060000  0.18310000  0.91000000  1.0
  H  H73  1  0.46760000  0.64160000  0.98550000  1.0
  H  H74  1  0.92550000  0.17970000  0.63120000  1.0
  H  H75  1  0.86750000  0.95450000  0.58130000  1.0
  H  H76  1  0.90220000  0.50360000  0.73230000  1.0
  H  H77  1  0.95960000  0.73950000  0.77820000  1.0
  H  H78  1  0.83730000  0.42030000  0.64910000  1.0
  H  H79  1  0.82370000  0.68330000  0.53530000  1.0
  H  H80  1  0.79200000  0.16170000  0.60550000  1.0
  H  H81  1  0.76390000  0.58330000  0.44590000  1.0
  H  H82  1  0.02060000  0.68310000  0.91000000  1.0
  H  H83  1  0.96760000  0.14160000  0.98550000  1.0
  C  C84  1  0.42071000  0.45990000  0.15177000  1.0
  C  C85  1  0.38616000  0.59380000  0.12175000  1.0
  C  C86  1  0.37839000  0.80030000  0.15048000  1.0
  C  C87  1  0.40651000  0.85870000  0.21029000  1.0
  C  C88  1  0.44055000  0.71670000  0.23758000  1.0
  C  C89  1  0.34293000  0.95740000  0.12182000  1.0
  C  C90  1  0.31851000  0.94220000  0.06177000  1.0
  C  C91  1  0.28337000  0.10220000  0.03085000  1.0
  C  C92  1  0.27493000  0.30180000  0.06262000  1.0
  C  C93  1  0.25837000  0.05180000  0.96814000  1.0
  C  C94  1  0.48710000  0.22450000  0.37163000  1.0
  C  C95  1  0.49331000  0.10500000  0.43787000  1.0
  C  C96  1  0.51230000  0.89160000  0.44658000  1.0
  C  C97  1  0.48088000  0.21260000  0.49148000  1.0
  C  C98  1  0.92071000  0.95990000  0.15177000  1.0
  C  C99  1  0.88616000  0.09380000  0.12175000  1.0
  C  C100  1  0.87839000  0.30030000  0.15048000  1.0
  C  C101  1  0.90651000  0.35870000  0.21029000  1.0
  C  C102  1  0.94055000  0.21670000  0.23758000  1.0
  C  C103  1  0.84293000  0.45740000  0.12182000  1.0
  C  C104  1  0.81851000  0.44220000  0.06177000  1.0
  C  C105  1  0.78337000  0.60220000  0.03085000  1.0
  C  C106  1  0.77493000  0.80180000  0.06262000  1.0
  C  C107  1  0.75837000  0.55180000  0.96814000  1.0
  C  C108  1  0.98710000  0.72450000  0.37163000  1.0
  C  C109  1  0.99331000  0.60500000  0.43787000  1.0
  C  C110  1  0.01230000  0.39160000  0.44658000  1.0
  C  C111  1  0.98088000  0.71260000  0.49148000  1.0
  C  C112  1  0.57929000  0.45990000  0.34823000  1.0
  C  C113  1  0.61384000  0.59380000  0.37825000  1.0
  C  C114  1  0.62161000  0.80030000  0.34952000  1.0
  C  C115  1  0.59349000  0.85870000  0.28971000  1.0
  C  C116  1  0.55945000  0.71670000  0.26242000  1.0
  C  C117  1  0.65707000  0.95740000  0.37818000  1.0
  C  C118  1  0.68149000  0.94220000  0.43823000  1.0
  C  C119  1  0.71663000  0.10220000  0.46915000  1.0
  C  C120  1  0.72507000  0.30180000  0.43738000  1.0
  C  C121  1  0.74163000  0.05180000  0.53186000  1.0
  C  C122  1  0.51290000  0.22450000  0.12837000  1.0
  C  C123  1  0.50669000  0.10500000  0.06213000  1.0
  C  C124  1  0.48770000  0.89160000  0.05342000  1.0
  C  C125  1  0.51912000  0.21260000  0.00852000  1.0
  C  C126  1  0.07929000  0.95990000  0.34823000  1.0
  C  C127  1  0.11384000  0.09380000  0.37825000  1.0
  C  C128  1  0.12161000  0.30030000  0.34952000  1.0
  C  C129  1  0.09349000  0.35870000  0.28971000  1.0
  C  C130  1  0.05945000  0.21670000  0.26242000  1.0
  C  C131  1  0.15707000  0.45740000  0.37818000  1.0
  C  C132  1  0.18149000  0.44220000  0.43823000  1.0
  C  C133  1  0.21663000  0.60220000  0.46915000  1.0
  C  C134  1  0.22507000  0.80180000  0.43738000  1.0
  C  C135  1  0.24163000  0.55180000  0.53186000  1.0
  C  C136  1  0.01290000  0.72450000  0.12837000  1.0
  C  C137  1  0.00669000  0.60500000  0.06213000  1.0
  C  C138  1  0.98770000  0.39160000  0.05342000  1.0
  C  C139  1  0.01912000  0.71260000  0.00852000  1.0
  C  C140  1  0.57929000  0.54010000  0.84823000  1.0
  C  C141  1  0.61384000  0.40620000  0.87825000  1.0
  C  C142  1  0.62161000  0.19970000  0.84952000  1.0
  C  C143  1  0.59349000  0.14130000  0.78971000  1.0
  C  C144  1  0.55945000  0.28330000  0.76242000  1.0
  C  C145  1  0.65707000  0.04260000  0.87818000  1.0
  C  C146  1  0.68149000  0.05780000  0.93823000  1.0
  C  C147  1  0.71663000  0.89780000  0.96915000  1.0
  C  C148  1  0.72507000  0.69820000  0.93738000  1.0
  C  C149  1  0.74163000  0.94820000  0.03186000  1.0
  C  C150  1  0.51290000  0.77550000  0.62837000  1.0
  C  C151  1  0.50669000  0.89500000  0.56213000  1.0
  C  C152  1  0.48770000  0.10840000  0.55342000  1.0
  C  C153  1  0.51912000  0.78740000  0.50852000  1.0
  C  C154  1  0.07929000  0.04010000  0.84823000  1.0
  C  C155  1  0.11384000  0.90620000  0.87825000  1.0
  C  C156  1  0.12161000  0.69970000  0.84952000  1.0
  C  C157  1  0.09349000  0.64130000  0.78971000  1.0
  C  C158  1  0.05945000  0.78330000  0.76242000  1.0
  C  C159  1  0.15707000  0.54260000  0.87818000  1.0
  C  C160  1  0.18149000  0.55780000  0.93823000  1.0
  C  C161  1  0.21663000  0.39780000  0.96915000  1.0
  C  C162  1  0.22507000  0.19820000  0.93738000  1.0
  C  C163  1  0.24163000  0.44820000  0.03186000  1.0
  C  C164  1  0.01290000  0.27550000  0.62837000  1.0
  C  C165  1  0.00669000  0.39500000  0.56213000  1.0
  C  C166  1  0.98770000  0.60840000  0.55342000  1.0
  C  C167  1  0.01912000  0.28740000  0.50852000  1.0
  C  C168  1  0.42071000  0.54010000  0.65177000  1.0
  C  C169  1  0.38616000  0.40620000  0.62175000  1.0
  C  C170  1  0.37839000  0.19970000  0.65048000  1.0
  C  C171  1  0.40651000  0.14130000  0.71029000  1.0
  C  C172  1  0.44055000  0.28330000  0.73758000  1.0
  C  C173  1  0.34293000  0.04260000  0.62182000  1.0
  C  C174  1  0.31851000  0.05780000  0.56177000  1.0
  C  C175  1  0.28337000  0.89780000  0.53085000  1.0
  C  C176  1  0.27493000  0.69820000  0.56262000  1.0
  C  C177  1  0.25837000  0.94820000  0.46814000  1.0
  C  C178  1  0.48710000  0.77550000  0.87163000  1.0
  C  C179  1  0.49331000  0.89500000  0.93787000  1.0
  C  C180  1  0.51230000  0.10840000  0.94658000  1.0
  C  C181  1  0.48088000  0.78740000  0.99148000  1.0
  C  C182  1  0.92071000  0.04010000  0.65177000  1.0
  C  C183  1  0.88616000  0.90620000  0.62175000  1.0
  C  C184  1  0.87839000  0.69970000  0.65048000  1.0
  C  C185  1  0.90651000  0.64130000  0.71029000  1.0
  C  C186  1  0.94055000  0.78330000  0.73758000  1.0
  C  C187  1  0.84293000  0.54260000  0.62182000  1.0
  C  C188  1  0.81851000  0.55780000  0.56177000  1.0
  C  C189  1  0.78337000  0.39780000  0.53085000  1.0
  C  C190  1  0.77493000  0.19820000  0.56262000  1.0
  C  C191  1  0.75837000  0.44820000  0.46814000  1.0
  C  C192  1  0.98710000  0.27550000  0.87163000  1.0
  C  C193  1  0.99331000  0.39500000  0.93787000  1.0
  C  C194  1  0.01230000  0.60840000  0.94658000  1.0
  C  C195  1  0.98088000  0.28740000  0.99148000  1.0
  N  N196  1  0.44800000  0.51960000  0.20930000  1.0
  N  N197  1  0.94800000  0.01960000  0.20930000  1.0
  N  N198  1  0.55200000  0.51960000  0.29070000  1.0
  N  N199  1  0.05200000  0.01960000  0.29070000  1.0
  N  N200  1  0.55200000  0.48040000  0.79070000  1.0
  N  N201  1  0.05200000  0.98040000  0.79070000  1.0
  N  N202  1  0.44800000  0.48040000  0.70930000  1.0
  N  N203  1  0.94800000  0.98040000  0.70930000  1.0
  O  O204  1  0.49744000  0.11160000  0.32359000  1.0
  O  O205  1  0.47390000  0.42230000  0.36596000  1.0
  O  O206  1  0.99744000  0.61160000  0.32359000  1.0
  O  O207  1  0.97390000  0.92230000  0.36596000  1.0
  O  O208  1  0.50256000  0.11160000  0.17641000  1.0
  O  O209  1  0.52610000  0.42230000  0.13404000  1.0
  O  O210  1  0.00256000  0.61160000  0.17641000  1.0
  O  O211  1  0.02610000  0.92230000  0.13404000  1.0
  O  O212  1  0.50256000  0.88840000  0.67641000  1.0
  O  O213  1  0.52610000  0.57770000  0.63404000  1.0
  O  O214  1  0.00256000  0.38840000  0.67641000  1.0
  O  O215  1  0.02610000  0.07770000  0.63404000  1.0
  O  O216  1  0.49744000  0.88840000  0.82359000  1.0
  O  O217  1  0.47390000  0.57770000  0.86596000  1.0
  O  O218  1  0.99744000  0.38840000  0.82359000  1.0
  O  O219  1  0.97390000  0.07770000  0.86596000  1.0
