# generated using pymatgen
data_ZnH2C6SO4
_symmetry_space_group_name_H-M   'P 1'
_cell_length_a   10.21510000
_cell_length_b   13.11700000
_cell_length_c   14.13600000
_cell_angle_alpha   90.00000000
_cell_angle_beta   90.00000000
_cell_angle_gamma   90.00000000
_symmetry_Int_Tables_number   1
_chemical_formula_structural   ZnH2C6SO4
_chemical_formula_sum   'Zn8 H16 C48 S8 O32'
_cell_volume   1894.10337327
_cell_formula_units_Z   8
loop_
 _symmetry_equiv_pos_site_id
 _symmetry_equiv_pos_as_xyz
  1  'x, y, z'
loop_
 _atom_site_type_symbol
 _atom_site_label
 _atom_site_symmetry_multiplicity
 _atom_site_fract_x
 _atom_site_fract_y
 _atom_site_fract_z
 _atom_site_occupancy
  Zn  Zn0  1  0.11409000  0.93077000  0.28564000  1.0
  Zn  Zn1  1  0.09206000  0.23357000  0.27964000  1.0
  Zn  Zn2  1  0.38591000  0.06923000  0.78564000  1.0
  Zn  Zn3  1  0.40794000  0.76643000  0.77964000  1.0
  Zn  Zn4  1  0.88591000  0.43077000  0.21436000  1.0
  Zn  Zn5  1  0.90794000  0.73357000  0.22036000  1.0
  Zn  Zn6  1  0.61409000  0.56923000  0.71436000  1.0
  Zn  Zn7  1  0.59206000  0.26643000  0.72036000  1.0
  H  H8  1  0.52360000  0.95490000  0.30060000  1.0
  H  H9  1  0.75000000  0.01040000  0.29150000  1.0
  H  H10  1  0.67350000  0.78290000  0.45070000  1.0
  H  H11  1  0.51800000  0.86370000  0.55360000  1.0
  H  H12  1  0.97640000  0.04510000  0.80060000  1.0
  H  H13  1  0.75000000  0.98960000  0.79150000  1.0
  H  H14  1  0.82650000  0.21710000  0.95070000  1.0
  H  H15  1  0.98200000  0.13630000  0.05360000  1.0
  H  H16  1  0.47640000  0.45490000  0.19940000  1.0
  H  H17  1  0.25000000  0.51040000  0.20850000  1.0
  H  H18  1  0.32650000  0.28290000  0.04930000  1.0
  H  H19  1  0.48200000  0.36370000  0.94640000  1.0
  H  H20  1  0.02360000  0.54510000  0.69940000  1.0
  H  H21  1  0.25000000  0.48960000  0.70850000  1.0
  H  H22  1  0.17350000  0.71710000  0.54930000  1.0
  H  H23  1  0.01800000  0.63630000  0.44640000  1.0
  C  C24  1  0.46310000  0.09510000  0.26190000  1.0
  C  C25  1  0.54860000  0.02050000  0.28370000  1.0
  C  C26  1  0.67910000  0.05250000  0.27800000  1.0
  C  C27  1  0.69140000  0.15090000  0.25090000  1.0
  C  C28  1  0.31810000  0.09310000  0.26610000  1.0
  C  C29  1  0.81090000  0.21260000  0.24380000  1.0
  C  C30  1  0.79510000  0.90440000  0.46130000  1.0
  C  C31  1  0.68630000  0.84710000  0.47710000  1.0
  C  C32  1  0.59710000  0.89340000  0.53630000  1.0
  C  C33  1  0.63590000  0.98650000  0.56670000  1.0
  C  C34  1  0.90450000  0.88430000  0.39680000  1.0
  C  C35  1  0.57200000  0.05700000  0.63430000  1.0
  C  C36  1  0.03690000  0.90490000  0.76190000  1.0
  C  C37  1  0.95140000  0.97950000  0.78370000  1.0
  C  C38  1  0.82090000  0.94750000  0.77800000  1.0
  C  C39  1  0.80860000  0.84910000  0.75090000  1.0
  C  C40  1  0.18190000  0.90690000  0.76610000  1.0
  C  C41  1  0.68910000  0.78740000  0.74380000  1.0
  C  C42  1  0.70490000  0.09560000  0.96130000  1.0
  C  C43  1  0.81370000  0.15290000  0.97710000  1.0
  C  C44  1  0.90290000  0.10660000  0.03630000  1.0
  C  C45  1  0.86410000  0.01350000  0.06670000  1.0
  C  C46  1  0.59550000  0.11570000  0.89680000  1.0
  C  C47  1  0.92800000  0.94300000  0.13430000  1.0
  C  C48  1  0.53690000  0.59510000  0.23810000  1.0
  C  C49  1  0.45140000  0.52050000  0.21630000  1.0
  C  C50  1  0.32090000  0.55250000  0.22200000  1.0
  C  C51  1  0.30860000  0.65090000  0.24910000  1.0
  C  C52  1  0.68190000  0.59310000  0.23390000  1.0
  C  C53  1  0.18910000  0.71260000  0.25620000  1.0
  C  C54  1  0.20490000  0.40440000  0.03870000  1.0
  C  C55  1  0.31370000  0.34710000  0.02290000  1.0
  C  C56  1  0.40290000  0.39340000  0.96370000  1.0
  C  C57  1  0.36410000  0.48650000  0.93330000  1.0
  C  C58  1  0.09550000  0.38430000  0.10320000  1.0
  C  C59  1  0.42800000  0.55700000  0.86570000  1.0
  C  C60  1  0.96310000  0.40490000  0.73810000  1.0
  C  C61  1  0.04860000  0.47950000  0.71630000  1.0
  C  C62  1  0.17910000  0.44750000  0.72200000  1.0
  C  C63  1  0.19140000  0.34910000  0.74910000  1.0
  C  C64  1  0.81810000  0.40690000  0.73390000  1.0
  C  C65  1  0.31090000  0.28740000  0.75620000  1.0
  C  C66  1  0.29510000  0.59560000  0.53870000  1.0
  C  C67  1  0.18630000  0.65290000  0.52290000  1.0
  C  C68  1  0.09710000  0.60660000  0.46370000  1.0
  C  C69  1  0.13590000  0.51350000  0.43330000  1.0
  C  C70  1  0.40450000  0.61570000  0.60320000  1.0
  C  C71  1  0.07200000  0.44300000  0.36570000  1.0
  S  S72  1  0.54148000  0.20639000  0.23130000  1.0
  S  S73  1  0.78631000  0.01723000  0.52215000  1.0
  S  S74  1  0.95852000  0.79361000  0.73130000  1.0
  S  S75  1  0.71369000  0.98277000  0.02215000  1.0
  S  S76  1  0.45852000  0.70639000  0.26870000  1.0
  S  S77  1  0.21369000  0.51723000  0.97785000  1.0
  S  S78  1  0.04148000  0.29361000  0.76870000  1.0
  S  S79  1  0.28631000  0.48277000  0.47785000  1.0
  O  O80  1  0.27040000  0.01080000  0.29690000  1.0
  O  O81  1  0.79440000  0.30250000  0.21390000  1.0
  O  O82  1  0.98900000  0.95440000  0.38640000  1.0
  O  O83  1  0.46290000  0.03040000  0.66550000  1.0
  O  O84  1  0.25810000  0.17060000  0.24240000  1.0
  O  O85  1  0.90950000  0.80050000  0.35580000  1.0
  O  O86  1  0.63210000  0.13720000  0.65580000  1.0
  O  O87  1  0.91700000  0.17430000  0.26940000  1.0
  O  O88  1  0.22960000  0.98920000  0.79690000  1.0
  O  O89  1  0.70560000  0.69750000  0.71390000  1.0
  O  O90  1  0.51100000  0.04560000  0.88640000  1.0
  O  O91  1  0.03710000  0.96960000  0.16550000  1.0
  O  O92  1  0.24190000  0.82940000  0.74240000  1.0
  O  O93  1  0.59050000  0.19950000  0.85580000  1.0
  O  O94  1  0.86790000  0.86280000  0.15580000  1.0
  O  O95  1  0.58300000  0.82570000  0.76940000  1.0
  O  O96  1  0.72960000  0.51080000  0.20310000  1.0
  O  O97  1  0.20560000  0.80250000  0.28610000  1.0
  O  O98  1  0.01100000  0.45440000  0.11360000  1.0
  O  O99  1  0.53710000  0.53040000  0.83450000  1.0
  O  O100  1  0.74190000  0.67060000  0.25760000  1.0
  O  O101  1  0.09050000  0.30050000  0.14420000  1.0
  O  O102  1  0.36790000  0.63720000  0.84420000  1.0
  O  O103  1  0.08300000  0.67430000  0.23060000  1.0
  O  O104  1  0.77040000  0.48920000  0.70310000  1.0
  O  O105  1  0.29440000  0.19750000  0.78610000  1.0
  O  O106  1  0.48900000  0.54560000  0.61360000  1.0
  O  O107  1  0.96290000  0.46960000  0.33450000  1.0
  O  O108  1  0.75810000  0.32940000  0.75760000  1.0
  O  O109  1  0.40950000  0.69950000  0.64420000  1.0
  O  O110  1  0.13210000  0.36280000  0.34420000  1.0
  O  O111  1  0.41700000  0.32570000  0.73060000  1.0
