# generated using pymatgen
data_Mn3H12(C11O5)2
_symmetry_space_group_name_H-M   'P 1'
_cell_length_a   10.89300000
_cell_length_b   6.61800000
_cell_length_c   17.33700000
_cell_angle_alpha   90.00000000
_cell_angle_beta   106.88500000
_cell_angle_gamma   90.00000000
_symmetry_Int_Tables_number   1
_chemical_formula_structural   Mn3H12(C11O5)2
_chemical_formula_sum   'Mn6 H24 C44 O20'
_cell_volume   1195.94188406
_cell_formula_units_Z   2
loop_
 _symmetry_equiv_pos_site_id
 _symmetry_equiv_pos_as_xyz
  1  'x, y, z'
loop_
 _atom_site_type_symbol
 _atom_site_label
 _atom_site_symmetry_multiplicity
 _atom_site_fract_x
 _atom_site_fract_y
 _atom_site_fract_z
 _atom_site_occupancy
  Mn  Mn0  1  0.46859000  0.49677000  0.08739000  1.0
  Mn  Mn1  1  0.53141000  0.99677000  0.41261000  1.0
  Mn  Mn2  1  0.53141000  0.50323000  0.91261000  1.0
  Mn  Mn3  1  0.46859000  0.00323000  0.58739000  1.0
  Mn  Mn4  1  0.50000000  0.00000000  0.00000000  1.0
  Mn  Mn5  1  0.50000000  0.50000000  0.50000000  1.0
  H  H6  1  0.65450000  0.31280000  0.04670000  1.0
  H  H7  1  0.21110000  0.12180000  0.19900000  1.0
  H  H8  1  0.18070000  0.65950000  0.29890000  1.0
  H  H9  1  0.01610000  0.74740000  0.18630000  1.0
  H  H10  1  0.94250000  0.51700000  0.08100000  1.0
  H  H11  1  0.14810000  0.88310000  0.93920000  1.0
  H  H12  1  0.34550000  0.81280000  0.45330000  1.0
  H  H13  1  0.78890000  0.62180000  0.30100000  1.0
  H  H14  1  0.81930000  0.15950000  0.20110000  1.0
  H  H15  1  0.98390000  0.24740000  0.31370000  1.0
  H  H16  1  0.05750000  0.01700000  0.41900000  1.0
  H  H17  1  0.85190000  0.38310000  0.56080000  1.0
  H  H18  1  0.34550000  0.68720000  0.95330000  1.0
  H  H19  1  0.78890000  0.87820000  0.80100000  1.0
  H  H20  1  0.81930000  0.34050000  0.70110000  1.0
  H  H21  1  0.98390000  0.25260000  0.81370000  1.0
  H  H22  1  0.05750000  0.48300000  0.91900000  1.0
  H  H23  1  0.85190000  0.11690000  0.06080000  1.0
  H  H24  1  0.65450000  0.18720000  0.54670000  1.0
  H  H25  1  0.21110000  0.37820000  0.69900000  1.0
  H  H26  1  0.18070000  0.84050000  0.79890000  1.0
  H  H27  1  0.01610000  0.75260000  0.68630000  1.0
  H  H28  1  0.94250000  0.98300000  0.58100000  1.0
  H  H29  1  0.14810000  0.61690000  0.43920000  1.0
  C  C30  1  0.25740000  0.16570000  0.04140000  1.0
  C  C31  1  0.12360000  0.08180000  0.02220000  1.0
  C  C32  1  0.03380000  0.15070000  0.05990000  1.0
  C  C33  1  0.07210000  0.29790000  0.12830000  1.0
  C  C34  1  0.17170000  0.24730000  0.19660000  1.0
  C  C35  1  0.21350000  0.37980000  0.26120000  1.0
  C  C36  1  0.15360000  0.56850000  0.25640000  1.0
  C  C37  1  0.05440000  0.62090000  0.18910000  1.0
  C  C38  1  0.01140000  0.48370000  0.12520000  1.0
  C  C39  1  0.32260000  0.32200000  0.33450000  1.0
  C  C40  1  0.08770000  0.93030000  0.96330000  1.0
  C  C41  1  0.74260000  0.66570000  0.45860000  1.0
  C  C42  1  0.87640000  0.58180000  0.47780000  1.0
  C  C43  1  0.96620000  0.65070000  0.44010000  1.0
  C  C44  1  0.92790000  0.79790000  0.37170000  1.0
  C  C45  1  0.82830000  0.74730000  0.30340000  1.0
  C  C46  1  0.78650000  0.87980000  0.23880000  1.0
  C  C47  1  0.84640000  0.06850000  0.24360000  1.0
  C  C48  1  0.94560000  0.12090000  0.31090000  1.0
  C  C49  1  0.98860000  0.98370000  0.37480000  1.0
  C  C50  1  0.67740000  0.82200000  0.16550000  1.0
  C  C51  1  0.91230000  0.43030000  0.53670000  1.0
  C  C52  1  0.74260000  0.83430000  0.95860000  1.0
  C  C53  1  0.87640000  0.91820000  0.97780000  1.0
  C  C54  1  0.96620000  0.84930000  0.94010000  1.0
  C  C55  1  0.92790000  0.70210000  0.87170000  1.0
  C  C56  1  0.82830000  0.75270000  0.80340000  1.0
  C  C57  1  0.78650000  0.62020000  0.73880000  1.0
  C  C58  1  0.84640000  0.43150000  0.74360000  1.0
  C  C59  1  0.94560000  0.37910000  0.81090000  1.0
  C  C60  1  0.98860000  0.51630000  0.87480000  1.0
  C  C61  1  0.67740000  0.67800000  0.66550000  1.0
  C  C62  1  0.91230000  0.06970000  0.03670000  1.0
  C  C63  1  0.25740000  0.33430000  0.54140000  1.0
  C  C64  1  0.12360000  0.41820000  0.52220000  1.0
  C  C65  1  0.03380000  0.34930000  0.55990000  1.0
  C  C66  1  0.07210000  0.20210000  0.62830000  1.0
  C  C67  1  0.17170000  0.25270000  0.69660000  1.0
  C  C68  1  0.21350000  0.12020000  0.76120000  1.0
  C  C69  1  0.15360000  0.93150000  0.75640000  1.0
  C  C70  1  0.05440000  0.87910000  0.68910000  1.0
  C  C71  1  0.01140000  0.01630000  0.62520000  1.0
  C  C72  1  0.32260000  0.17800000  0.83450000  1.0
  C  C73  1  0.08770000  0.56970000  0.46330000  1.0
  O  O74  1  0.27340000  0.35280000  0.03820000  1.0
  O  O75  1  0.34850000  0.03850000  0.06010000  1.0
  O  O76  1  0.36280000  0.14540000  0.33810000  1.0
  O  O77  1  0.35990000  0.45440000  0.38620000  1.0
  O  O78  1  0.56240000  0.31270000  0.01860000  1.0
  O  O79  1  0.72660000  0.85280000  0.46180000  1.0
  O  O80  1  0.65150000  0.53850000  0.43990000  1.0
  O  O81  1  0.63720000  0.64540000  0.16190000  1.0
  O  O82  1  0.64010000  0.95440000  0.11380000  1.0
  O  O83  1  0.43760000  0.81270000  0.48140000  1.0
  O  O84  1  0.72660000  0.64720000  0.96180000  1.0
  O  O85  1  0.65150000  0.96150000  0.93990000  1.0
  O  O86  1  0.63720000  0.85460000  0.66190000  1.0
  O  O87  1  0.64010000  0.54560000  0.61380000  1.0
  O  O88  1  0.43760000  0.68730000  0.98140000  1.0
  O  O89  1  0.27340000  0.14720000  0.53820000  1.0
  O  O90  1  0.34850000  0.46150000  0.56010000  1.0
  O  O91  1  0.36280000  0.35460000  0.83810000  1.0
  O  O92  1  0.35990000  0.04560000  0.88620000  1.0
  O  O93  1  0.56240000  0.18730000  0.51860000  1.0
