# generated using pymatgen
data_MnH2(CO2)2
_symmetry_space_group_name_H-M   'P 1'
_cell_length_a   10.25000000
_cell_length_b   11.68300000
_cell_length_c   15.15400000
_cell_angle_alpha   91.86000000
_cell_angle_beta   90.00000000
_cell_angle_gamma   90.00000000
_symmetry_Int_Tables_number   1
_chemical_formula_structural   MnH2(CO2)2
_chemical_formula_sum   'Mn12 H24 C24 O48'
_cell_volume   1813.74673315
_cell_formula_units_Z   12
loop_
 _symmetry_equiv_pos_site_id
 _symmetry_equiv_pos_as_xyz
  1  'x, y, z'
loop_
 _atom_site_type_symbol
 _atom_site_label
 _atom_site_symmetry_multiplicity
 _atom_site_fract_x
 _atom_site_fract_y
 _atom_site_fract_z
 _atom_site_occupancy
  Mn  Mn0  1  0.92343000  0.24391000  0.86866000  1.0
  Mn  Mn1  1  0.61240000  0.23947000  0.80907000  1.0
  Mn  Mn2  1  0.42343000  0.25609000  0.63134000  1.0
  Mn  Mn3  1  0.11240000  0.26053000  0.69093000  1.0
  Mn  Mn4  1  0.07657000  0.75609000  0.13134000  1.0
  Mn  Mn5  1  0.38760000  0.76053000  0.19093000  1.0
  Mn  Mn6  1  0.57657000  0.74391000  0.36866000  1.0
  Mn  Mn7  1  0.88760000  0.73947000  0.30907000  1.0
  Mn  Mn8  1  0.00000000  0.00000000  0.00000000  1.0
  Mn  Mn9  1  0.50000000  0.50000000  0.50000000  1.0
  Mn  Mn10  1  0.00000000  0.50000000  0.00000000  1.0
  Mn  Mn11  1  0.50000000  0.00000000  0.50000000  1.0
  H  H12  1  0.71370000  0.99220000  0.96420000  1.0
  H  H13  1  0.62760000  0.44400000  0.94920000  1.0
  H  H14  1  0.21180000  0.03720000  0.78460000  1.0
  H  H15  1  0.15100000  0.30180000  0.07210000  1.0
  H  H16  1  0.76540000  0.14950000  0.63350000  1.0
  H  H17  1  0.04140000  0.52040000  0.74310000  1.0
  H  H18  1  0.21370000  0.50780000  0.53580000  1.0
  H  H19  1  0.12760000  0.05600000  0.55080000  1.0
  H  H20  1  0.71180000  0.46280000  0.71540000  1.0
  H  H21  1  0.65100000  0.19820000  0.42790000  1.0
  H  H22  1  0.26540000  0.35050000  0.86650000  1.0
  H  H23  1  0.54140000  0.97960000  0.75690000  1.0
  H  H24  1  0.28630000  0.00780000  0.03580000  1.0
  H  H25  1  0.37240000  0.55600000  0.05080000  1.0
  H  H26  1  0.78820000  0.96280000  0.21540000  1.0
  H  H27  1  0.84900000  0.69820000  0.92790000  1.0
  H  H28  1  0.23460000  0.85050000  0.36650000  1.0
  H  H29  1  0.95860000  0.47960000  0.25690000  1.0
  H  H30  1  0.78630000  0.49220000  0.46420000  1.0
  H  H31  1  0.87240000  0.94400000  0.44920000  1.0
  H  H32  1  0.28820000  0.53720000  0.28460000  1.0
  H  H33  1  0.34900000  0.80180000  0.57210000  1.0
  H  H34  1  0.73460000  0.64950000  0.13350000  1.0
  H  H35  1  0.45860000  0.02040000  0.24310000  1.0
  C  C36  1  0.72867000  0.05784000  0.93264000  1.0
  C  C37  1  0.71528000  0.42400000  0.94509000  1.0
  C  C38  1  0.14520000  0.05930000  0.82316000  1.0
  C  C39  1  0.09652000  0.25904000  0.03471000  1.0
  C  C40  1  0.83239000  0.17700000  0.66971000  1.0
  C  C41  1  0.02160000  0.48092000  0.79371000  1.0
  C  C42  1  0.22867000  0.44216000  0.56736000  1.0
  C  C43  1  0.21528000  0.07600000  0.55491000  1.0
  C  C44  1  0.64520000  0.44070000  0.67684000  1.0
  C  C45  1  0.59652000  0.24096000  0.46529000  1.0
  C  C46  1  0.33239000  0.32300000  0.83029000  1.0
  C  C47  1  0.52160000  0.01908000  0.70629000  1.0
  C  C48  1  0.27133000  0.94216000  0.06736000  1.0
  C  C49  1  0.28472000  0.57600000  0.05491000  1.0
  C  C50  1  0.85480000  0.94070000  0.17684000  1.0
  C  C51  1  0.90348000  0.74096000  0.96529000  1.0
  C  C52  1  0.16761000  0.82300000  0.33029000  1.0
  C  C53  1  0.97840000  0.51908000  0.20629000  1.0
  C  C54  1  0.77133000  0.55784000  0.43264000  1.0
  C  C55  1  0.78472000  0.92400000  0.44509000  1.0
  C  C56  1  0.35480000  0.55930000  0.32316000  1.0
  C  C57  1  0.40348000  0.75904000  0.53471000  1.0
  C  C58  1  0.66761000  0.67700000  0.16971000  1.0
  C  C59  1  0.47840000  0.98092000  0.29371000  1.0
  O  O60  1  0.63370000  0.09939000  0.89533000  1.0
  O  O61  1  0.09550000  0.15501000  0.04309000  1.0
  O  O62  1  0.79132000  0.47760000  0.99301000  1.0
  O  O63  1  0.01194000  0.37342000  0.78509000  1.0
  O  O64  1  0.08443000  0.15021000  0.80581000  1.0
  O  O65  1  0.84441000  0.09538000  0.93236000  1.0
  O  O66  1  0.80512000  0.19586000  0.75006000  1.0
  O  O67  1  0.02952000  0.31353000  0.97931000  1.0
  O  O68  1  0.74472000  0.34366000  0.89028000  1.0
  O  O69  1  0.93984000  0.19158000  0.63438000  1.0
  O  O70  1  0.12505000  0.99757000  0.88553000  1.0
  O  O71  1  0.00760000  0.53799000  0.86155000  1.0
  O  O72  1  0.13370000  0.40061000  0.60467000  1.0
  O  O73  1  0.59550000  0.34499000  0.45691000  1.0
  O  O74  1  0.29132000  0.02240000  0.50699000  1.0
  O  O75  1  0.51194000  0.12658000  0.71491000  1.0
  O  O76  1  0.58443000  0.34979000  0.69419000  1.0
  O  O77  1  0.34441000  0.40462000  0.56764000  1.0
  O  O78  1  0.30512000  0.30414000  0.74994000  1.0
  O  O79  1  0.52952000  0.18647000  0.52069000  1.0
  O  O80  1  0.24472000  0.15634000  0.60972000  1.0
  O  O81  1  0.43984000  0.30842000  0.86562000  1.0
  O  O82  1  0.62505000  0.50243000  0.61447000  1.0
  O  O83  1  0.50760000  0.96201000  0.63845000  1.0
  O  O84  1  0.36630000  0.90061000  0.10467000  1.0
  O  O85  1  0.90450000  0.84499000  0.95691000  1.0
  O  O86  1  0.20868000  0.52240000  0.00699000  1.0
  O  O87  1  0.98806000  0.62658000  0.21491000  1.0
  O  O88  1  0.91557000  0.84979000  0.19419000  1.0
  O  O89  1  0.15559000  0.90462000  0.06764000  1.0
  O  O90  1  0.19488000  0.80414000  0.24994000  1.0
  O  O91  1  0.97048000  0.68647000  0.02069000  1.0
  O  O92  1  0.25528000  0.65634000  0.10972000  1.0
  O  O93  1  0.06016000  0.80842000  0.36562000  1.0
  O  O94  1  0.87495000  0.00243000  0.11447000  1.0
  O  O95  1  0.99240000  0.46201000  0.13845000  1.0
  O  O96  1  0.86630000  0.59939000  0.39533000  1.0
  O  O97  1  0.40450000  0.65501000  0.54309000  1.0
  O  O98  1  0.70868000  0.97760000  0.49301000  1.0
  O  O99  1  0.48806000  0.87342000  0.28509000  1.0
  O  O100  1  0.41557000  0.65021000  0.30581000  1.0
  O  O101  1  0.65559000  0.59538000  0.43236000  1.0
  O  O102  1  0.69488000  0.69586000  0.25006000  1.0
  O  O103  1  0.47048000  0.81353000  0.47931000  1.0
  O  O104  1  0.75528000  0.84366000  0.39028000  1.0
  O  O105  1  0.56016000  0.69158000  0.13438000  1.0
  O  O106  1  0.37495000  0.49757000  0.38553000  1.0
  O  O107  1  0.49240000  0.03799000  0.36155000  1.0
