# generated using pymatgen
data_Ag13H56(C2N)32
_symmetry_space_group_name_H-M   'P 1'
_cell_length_a   24.97300000
_cell_length_b   19.35060000
_cell_length_c   21.38330000
_cell_angle_alpha   90.00000000
_cell_angle_beta   96.04500000
_cell_angle_gamma   90.00000000
_symmetry_Int_Tables_number   1
_chemical_formula_structural   Ag13H56(C2N)32
_chemical_formula_sum   'Ag52 H224 C256 N128'
_cell_volume   10275.86156591
_cell_formula_units_Z   4
loop_
 _symmetry_equiv_pos_site_id
 _symmetry_equiv_pos_as_xyz
  1  'x, y, z'
loop_
 _atom_site_type_symbol
 _atom_site_label
 _atom_site_symmetry_multiplicity
 _atom_site_fract_x
 _atom_site_fract_y
 _atom_site_fract_z
 _atom_site_occupancy
  Ag  Ag0  1  0.69970000  0.21057000  0.44271000  1.0
  Ag  Ag1  1  0.90329000  0.21633000  0.62967000  1.0
  Ag  Ag2  1  0.00956000  0.56798000  0.93377000  1.0
  Ag  Ag3  1  0.94520000  0.48252000  0.77003000  1.0
  Ag  Ag4  1  0.96395000  0.28734000  0.78486000  1.0
  Ag  Ag5  1  0.58072000  0.28974000  0.37533000  1.0
  Ag  Ag6  1  0.76799000  0.32634000  0.57406000  1.0
  Ag  Ag7  1  0.51243000  0.20565000  0.22265000  1.0
  Ag  Ag8  1  0.55995000  0.01670000  0.23302000  1.0
  Ag  Ag9  1  0.52318000  0.06358000  0.93917000  1.0
  Ag  Ag10  1  0.52600000  0.58680000  0.56410000  1.0
  Ag  Ag11  1  0.66000000  0.19070000  0.48130000  1.0
  Ag  Ag12  1  0.42900000  0.52670000  0.55920000  1.0
  Ag  Ag13  1  0.30030000  0.71057000  0.05729000  1.0
  Ag  Ag14  1  0.09671000  0.71633000  0.87033000  1.0
  Ag  Ag15  1  0.99044000  0.06798000  0.56623000  1.0
  Ag  Ag16  1  0.05480000  0.98252000  0.72997000  1.0
  Ag  Ag17  1  0.03605000  0.78734000  0.71514000  1.0
  Ag  Ag18  1  0.41928000  0.78974000  0.12467000  1.0
  Ag  Ag19  1  0.23201000  0.82634000  0.92594000  1.0
  Ag  Ag20  1  0.48757000  0.70565000  0.27735000  1.0
  Ag  Ag21  1  0.44005000  0.51670000  0.26698000  1.0
  Ag  Ag22  1  0.47682000  0.56358000  0.56083000  1.0
  Ag  Ag23  1  0.47400000  0.08680000  0.93590000  1.0
  Ag  Ag24  1  0.34000000  0.69070000  0.01870000  1.0
  Ag  Ag25  1  0.57100000  0.02670000  0.94080000  1.0
  Ag  Ag26  1  0.30030000  0.78943000  0.55729000  1.0
  Ag  Ag27  1  0.09671000  0.78367000  0.37033000  1.0
  Ag  Ag28  1  0.99044000  0.43202000  0.06623000  1.0
  Ag  Ag29  1  0.05480000  0.51748000  0.22997000  1.0
  Ag  Ag30  1  0.03605000  0.71266000  0.21514000  1.0
  Ag  Ag31  1  0.41928000  0.71026000  0.62467000  1.0
  Ag  Ag32  1  0.23201000  0.67366000  0.42594000  1.0
  Ag  Ag33  1  0.48757000  0.79435000  0.77735000  1.0
  Ag  Ag34  1  0.44005000  0.98330000  0.76698000  1.0
  Ag  Ag35  1  0.47682000  0.93642000  0.06083000  1.0
  Ag  Ag36  1  0.47400000  0.41320000  0.43590000  1.0
  Ag  Ag37  1  0.34000000  0.80930000  0.51870000  1.0
  Ag  Ag38  1  0.57100000  0.47330000  0.44080000  1.0
  Ag  Ag39  1  0.69970000  0.28943000  0.94271000  1.0
  Ag  Ag40  1  0.90329000  0.28367000  0.12967000  1.0
  Ag  Ag41  1  0.00956000  0.93202000  0.43377000  1.0
  Ag  Ag42  1  0.94520000  0.01748000  0.27003000  1.0
  Ag  Ag43  1  0.96395000  0.21266000  0.28486000  1.0
  Ag  Ag44  1  0.58072000  0.21026000  0.87533000  1.0
  Ag  Ag45  1  0.76799000  0.17366000  0.07406000  1.0
  Ag  Ag46  1  0.51243000  0.29435000  0.72265000  1.0
  Ag  Ag47  1  0.55995000  0.48330000  0.73302000  1.0
  Ag  Ag48  1  0.52318000  0.43642000  0.43917000  1.0
  Ag  Ag49  1  0.52600000  0.91320000  0.06410000  1.0
  Ag  Ag50  1  0.66000000  0.30930000  0.98130000  1.0
  Ag  Ag51  1  0.42900000  0.97330000  0.05920000  1.0
  H  H52  1  0.90280000  0.24470000  0.89190000  1.0
  H  H53  1  0.88510000  0.13990000  0.94020000  1.0
  H  H54  1  0.93120000  0.10990000  0.03310000  1.0
  H  H55  1  0.01290000  0.28620000  0.03890000  1.0
  H  H56  1  0.03840000  0.20630000  0.11800000  1.0
  H  H57  1  0.99160000  0.15930000  0.13700000  1.0
  H  H58  1  0.03370000  0.12950000  0.09470000  1.0
  H  H59  1  0.81010000  0.44940000  0.54020000  1.0
  H  H60  1  0.77170000  0.55050000  0.49670000  1.0
  H  H61  1  0.76940000  0.64950000  0.55970000  1.0
  H  H62  1  0.85130000  0.54780000  0.70200000  1.0
  H  H63  1  0.82510000  0.65970000  0.71970000  1.0
  H  H64  1  0.82670000  0.70740000  0.66060000  1.0
  H  H65  1  0.77130000  0.68460000  0.68210000  1.0
  H  H66  1  0.68950000  0.40140000  0.65380000  1.0
  H  H67  1  0.69610000  0.49280000  0.72590000  1.0
  H  H68  1  0.67380000  0.60020000  0.69360000  1.0
  H  H69  1  0.62440000  0.53230000  0.52170000  1.0
  H  H70  1  0.63820000  0.68030000  0.62100000  1.0
  H  H71  1  0.65310000  0.66450000  0.55310000  1.0
  H  H72  1  0.59410000  0.65260000  0.56950000  1.0
  H  H73  1  0.79150000  0.13690000  0.33740000  1.0
  H  H74  1  0.79080000  0.04890000  0.26350000  1.0
  H  H75  1  0.82690000  0.94170000  0.29250000  1.0
  H  H76  1  0.86440000  0.01040000  0.46900000  1.0
  H  H77  1  0.86950000  0.86510000  0.37070000  1.0
  H  H78  1  0.90930000  0.90250000  0.42150000  1.0
  H  H79  1  0.85230000  0.87910000  0.43800000  1.0
  H  H80  1  0.68660000  0.07650000  0.46250000  1.0
  H  H81  1  0.74160000  0.98790000  0.50710000  1.0
  H  H82  1  0.75300000  0.88910000  0.44870000  1.0
  H  H83  1  0.65940000  0.96730000  0.30390000  1.0
  H  H84  1  0.69580000  0.85680000  0.29160000  1.0
  H  H85  1  0.75430000  0.85160000  0.32600000  1.0
  H  H86  1  0.70680000  0.81240000  0.35290000  1.0
  H  H87  1  0.06460000  0.22190000  0.84260000  1.0
  H  H88  1  0.00800000  0.02820000  0.84170000  1.0
  H  H89  1  0.03650000  0.01840000  0.94730000  1.0
  H  H90  1  0.08480000  0.10500000  0.99720000  1.0
  H  H91  1  0.12190000  0.21940000  0.00240000  1.0
  H  H92  1  0.14300000  0.24100000  0.93870000  1.0
  H  H93  1  0.08960000  0.27310000  0.95830000  1.0
  H  H94  1  0.58140000  0.24980000  0.12560000  1.0
  H  H95  1  0.60570000  0.35750000  0.08990000  1.0
  H  H96  1  0.56800000  0.39590000  0.99420000  1.0
  H  H97  1  0.48120000  0.22010000  0.96900000  1.0
  H  H98  1  0.46780000  0.30950000  0.89030000  1.0
  H  H99  1  0.47390000  0.38470000  0.91730000  1.0
  H  H100  1  0.51980000  0.35250000  0.88190000  1.0
  H  H101  1  0.48770000  0.46020000  0.15970000  1.0
  H  H102  1  0.45260000  0.47150000  0.05470000  1.0
  H  H103  1  0.40240000  0.39070000  0.00540000  1.0
  H  H104  1  0.40970000  0.27850000  0.16350000  1.0
  H  H105  1  0.35590000  0.23720000  0.07240000  1.0
  H  H106  1  0.32940000  0.29530000  0.02840000  1.0
  H  H107  1  0.38030000  0.25600000  0.01000000  1.0
  H  H108  1  0.09720000  0.74470000  0.60810000  1.0
  H  H109  1  0.11490000  0.63990000  0.55980000  1.0
  H  H110  1  0.06880000  0.60990000  0.46690000  1.0
  H  H111  1  0.98710000  0.78620000  0.46110000  1.0
  H  H112  1  0.96160000  0.70630000  0.38200000  1.0
  H  H113  1  0.00840000  0.65930000  0.36300000  1.0
  H  H114  1  0.96630000  0.62950000  0.40530000  1.0
  H  H115  1  0.18990000  0.94940000  0.95980000  1.0
  H  H116  1  0.22830000  0.05050000  0.00330000  1.0
  H  H117  1  0.23060000  0.14950000  0.94030000  1.0
  H  H118  1  0.14870000  0.04780000  0.79800000  1.0
  H  H119  1  0.17490000  0.15970000  0.78030000  1.0
  H  H120  1  0.17330000  0.20740000  0.83940000  1.0
  H  H121  1  0.22870000  0.18460000  0.81790000  1.0
  H  H122  1  0.31050000  0.90140000  0.84620000  1.0
  H  H123  1  0.30390000  0.99280000  0.77410000  1.0
  H  H124  1  0.32620000  0.10020000  0.80640000  1.0
  H  H125  1  0.37560000  0.03230000  0.97830000  1.0
  H  H126  1  0.36180000  0.18030000  0.87900000  1.0
  H  H127  1  0.34690000  0.16450000  0.94690000  1.0
  H  H128  1  0.40590000  0.15260000  0.93050000  1.0
  H  H129  1  0.20850000  0.63690000  0.16260000  1.0
  H  H130  1  0.20920000  0.54890000  0.23650000  1.0
  H  H131  1  0.17310000  0.44170000  0.20750000  1.0
  H  H132  1  0.13560000  0.51040000  0.03100000  1.0
  H  H133  1  0.13050000  0.36510000  0.12930000  1.0
  H  H134  1  0.09070000  0.40250000  0.07850000  1.0
  H  H135  1  0.14770000  0.37910000  0.06200000  1.0
  H  H136  1  0.31340000  0.57650000  0.03750000  1.0
  H  H137  1  0.25840000  0.48790000  0.99290000  1.0
  H  H138  1  0.24700000  0.38910000  0.05130000  1.0
  H  H139  1  0.34060000  0.46730000  0.19610000  1.0
  H  H140  1  0.30420000  0.35680000  0.20840000  1.0
  H  H141  1  0.24570000  0.35160000  0.17400000  1.0
  H  H142  1  0.29320000  0.31240000  0.14710000  1.0
  H  H143  1  0.93540000  0.72190000  0.65740000  1.0
  H  H144  1  0.99200000  0.52820000  0.65830000  1.0
  H  H145  1  0.96350000  0.51840000  0.55270000  1.0
  H  H146  1  0.91520000  0.60500000  0.50280000  1.0
  H  H147  1  0.87810000  0.71940000  0.49760000  1.0
  H  H148  1  0.85700000  0.74100000  0.56130000  1.0
  H  H149  1  0.91040000  0.77310000  0.54170000  1.0
  H  H150  1  0.41860000  0.74980000  0.37440000  1.0
  H  H151  1  0.39430000  0.85750000  0.41010000  1.0
  H  H152  1  0.43200000  0.89590000  0.50580000  1.0
  H  H153  1  0.51880000  0.72010000  0.53100000  1.0
  H  H154  1  0.53220000  0.80950000  0.60970000  1.0
  H  H155  1  0.52610000  0.88470000  0.58270000  1.0
  H  H156  1  0.48020000  0.85250000  0.61810000  1.0
  H  H157  1  0.51230000  0.96020000  0.34030000  1.0
  H  H158  1  0.54740000  0.97150000  0.44530000  1.0
  H  H159  1  0.59760000  0.89070000  0.49460000  1.0
  H  H160  1  0.59030000  0.77850000  0.33650000  1.0
  H  H161  1  0.64410000  0.73720000  0.42760000  1.0
  H  H162  1  0.67060000  0.79530000  0.47160000  1.0
  H  H163  1  0.61970000  0.75600000  0.49000000  1.0
  H  H164  1  0.09720000  0.75530000  0.10810000  1.0
  H  H165  1  0.11490000  0.86010000  0.05980000  1.0
  H  H166  1  0.06880000  0.89010000  0.96690000  1.0
  H  H167  1  0.98710000  0.71380000  0.96110000  1.0
  H  H168  1  0.96160000  0.79370000  0.88200000  1.0
  H  H169  1  0.00840000  0.84070000  0.86300000  1.0
  H  H170  1  0.96630000  0.87050000  0.90530000  1.0
  H  H171  1  0.18990000  0.55060000  0.45980000  1.0
  H  H172  1  0.22830000  0.44950000  0.50330000  1.0
  H  H173  1  0.23060000  0.35050000  0.44030000  1.0
  H  H174  1  0.14870000  0.45220000  0.29800000  1.0
  H  H175  1  0.17490000  0.34030000  0.28030000  1.0
  H  H176  1  0.17330000  0.29260000  0.33940000  1.0
  H  H177  1  0.22870000  0.31540000  0.31790000  1.0
  H  H178  1  0.31050000  0.59860000  0.34620000  1.0
  H  H179  1  0.30390000  0.50720000  0.27410000  1.0
  H  H180  1  0.32620000  0.39980000  0.30640000  1.0
  H  H181  1  0.37560000  0.46770000  0.47830000  1.0
  H  H182  1  0.36180000  0.31970000  0.37900000  1.0
  H  H183  1  0.34690000  0.33550000  0.44690000  1.0
  H  H184  1  0.40590000  0.34740000  0.43050000  1.0
  H  H185  1  0.20850000  0.86310000  0.66260000  1.0
  H  H186  1  0.20920000  0.95110000  0.73650000  1.0
  H  H187  1  0.17310000  0.05830000  0.70750000  1.0
  H  H188  1  0.13560000  0.98960000  0.53100000  1.0
  H  H189  1  0.13050000  0.13490000  0.62930000  1.0
  H  H190  1  0.09070000  0.09750000  0.57850000  1.0
  H  H191  1  0.14770000  0.12090000  0.56200000  1.0
  H  H192  1  0.31340000  0.92350000  0.53750000  1.0
  H  H193  1  0.25840000  0.01210000  0.49290000  1.0
  H  H194  1  0.24700000  0.11090000  0.55130000  1.0
  H  H195  1  0.34060000  0.03270000  0.69610000  1.0
  H  H196  1  0.30420000  0.14320000  0.70840000  1.0
  H  H197  1  0.24570000  0.14840000  0.67400000  1.0
  H  H198  1  0.29320000  0.18760000  0.64710000  1.0
  H  H199  1  0.93540000  0.77810000  0.15740000  1.0
  H  H200  1  0.99200000  0.97180000  0.15830000  1.0
  H  H201  1  0.96350000  0.98160000  0.05270000  1.0
  H  H202  1  0.91520000  0.89500000  0.00280000  1.0
  H  H203  1  0.87810000  0.78060000  0.99760000  1.0
  H  H204  1  0.85700000  0.75900000  0.06130000  1.0
  H  H205  1  0.91040000  0.72690000  0.04170000  1.0
  H  H206  1  0.41860000  0.75020000  0.87440000  1.0
  H  H207  1  0.39430000  0.64250000  0.91010000  1.0
  H  H208  1  0.43200000  0.60410000  0.00580000  1.0
  H  H209  1  0.51880000  0.77990000  0.03100000  1.0
  H  H210  1  0.53220000  0.69050000  0.10970000  1.0
  H  H211  1  0.52610000  0.61530000  0.08270000  1.0
  H  H212  1  0.48020000  0.64750000  0.11810000  1.0
  H  H213  1  0.51230000  0.53980000  0.84030000  1.0
  H  H214  1  0.54740000  0.52850000  0.94530000  1.0
  H  H215  1  0.59760000  0.60930000  0.99460000  1.0
  H  H216  1  0.59030000  0.72150000  0.83650000  1.0
  H  H217  1  0.64410000  0.76280000  0.92760000  1.0
  H  H218  1  0.67060000  0.70470000  0.97160000  1.0
  H  H219  1  0.61970000  0.74400000  0.99000000  1.0
  H  H220  1  0.90280000  0.25530000  0.39190000  1.0
  H  H221  1  0.88510000  0.36010000  0.44020000  1.0
  H  H222  1  0.93120000  0.39010000  0.53310000  1.0
  H  H223  1  0.01290000  0.21380000  0.53890000  1.0
  H  H224  1  0.03840000  0.29370000  0.61800000  1.0
  H  H225  1  0.99160000  0.34070000  0.63700000  1.0
  H  H226  1  0.03370000  0.37050000  0.59470000  1.0
  H  H227  1  0.81010000  0.05060000  0.04020000  1.0
  H  H228  1  0.77170000  0.94950000  0.99670000  1.0
  H  H229  1  0.76940000  0.85050000  0.05970000  1.0
  H  H230  1  0.85130000  0.95220000  0.20200000  1.0
  H  H231  1  0.82510000  0.84030000  0.21970000  1.0
  H  H232  1  0.82670000  0.79260000  0.16060000  1.0
  H  H233  1  0.77130000  0.81540000  0.18210000  1.0
  H  H234  1  0.68950000  0.09860000  0.15380000  1.0
  H  H235  1  0.69610000  0.00720000  0.22590000  1.0
  H  H236  1  0.67380000  0.89980000  0.19360000  1.0
  H  H237  1  0.62440000  0.96770000  0.02170000  1.0
  H  H238  1  0.63820000  0.81970000  0.12100000  1.0
  H  H239  1  0.65310000  0.83550000  0.05310000  1.0
  H  H240  1  0.59410000  0.84740000  0.06950000  1.0
  H  H241  1  0.79150000  0.36310000  0.83740000  1.0
  H  H242  1  0.79080000  0.45110000  0.76350000  1.0
  H  H243  1  0.82690000  0.55830000  0.79250000  1.0
  H  H244  1  0.86440000  0.48960000  0.96900000  1.0
  H  H245  1  0.86950000  0.63490000  0.87070000  1.0
  H  H246  1  0.90930000  0.59750000  0.92150000  1.0
  H  H247  1  0.85230000  0.62090000  0.93800000  1.0
  H  H248  1  0.68660000  0.42350000  0.96250000  1.0
  H  H249  1  0.74160000  0.51210000  0.00710000  1.0
  H  H250  1  0.75300000  0.61090000  0.94870000  1.0
  H  H251  1  0.65940000  0.53270000  0.80390000  1.0
  H  H252  1  0.69580000  0.64320000  0.79160000  1.0
  H  H253  1  0.75430000  0.64840000  0.82600000  1.0
  H  H254  1  0.70680000  0.68760000  0.85290000  1.0
  H  H255  1  0.06460000  0.27810000  0.34260000  1.0
  H  H256  1  0.00800000  0.47180000  0.34170000  1.0
  H  H257  1  0.03650000  0.48160000  0.44730000  1.0
  H  H258  1  0.08480000  0.39500000  0.49720000  1.0
  H  H259  1  0.12190000  0.28060000  0.50240000  1.0
  H  H260  1  0.14300000  0.25900000  0.43870000  1.0
  H  H261  1  0.08960000  0.22690000  0.45830000  1.0
  H  H262  1  0.58140000  0.25020000  0.62560000  1.0
  H  H263  1  0.60570000  0.14250000  0.58990000  1.0
  H  H264  1  0.56800000  0.10410000  0.49420000  1.0
  H  H265  1  0.48120000  0.27990000  0.46900000  1.0
  H  H266  1  0.46780000  0.19050000  0.39030000  1.0
  H  H267  1  0.47390000  0.11530000  0.41730000  1.0
  H  H268  1  0.51980000  0.14750000  0.38190000  1.0
  H  H269  1  0.48770000  0.03980000  0.65970000  1.0
  H  H270  1  0.45260000  0.02850000  0.55470000  1.0
  H  H271  1  0.40240000  0.10930000  0.50540000  1.0
  H  H272  1  0.40970000  0.22150000  0.66350000  1.0
  H  H273  1  0.35590000  0.26280000  0.57240000  1.0
  H  H274  1  0.32940000  0.20470000  0.52840000  1.0
  H  H275  1  0.38030000  0.24400000  0.51000000  1.0
  C  C276  1  0.96080000  0.27660000  0.96130000  1.0
  C  C277  1  0.92130000  0.23240000  0.93030000  1.0
  C  C278  1  0.91120000  0.16960000  0.95920000  1.0
  C  C279  1  0.93900000  0.15180000  0.01480000  1.0
  C  C280  1  0.97810000  0.19310000  0.04520000  1.0
  C  C281  1  0.98770000  0.25650000  0.01820000  1.0
  C  C282  1  0.01380000  0.16990000  0.10430000  1.0
  C  C283  1  0.97060000  0.34360000  0.93240000  1.0
  C  C284  1  0.83390000  0.48910000  0.62620000  1.0
  C  C285  1  0.81020000  0.48940000  0.56430000  1.0
  C  C286  1  0.78650000  0.54960000  0.53850000  1.0
  C  C287  1  0.78540000  0.60930000  0.57650000  1.0
  C  C288  1  0.80780000  0.60830000  0.63770000  1.0
  C  C289  1  0.83380000  0.54780000  0.66140000  1.0
  C  C290  1  0.80770000  0.67050000  0.67870000  1.0
  C  C291  1  0.85780000  0.42450000  0.65240000  1.0
  C  C292  1  0.65650000  0.45770000  0.57970000  1.0
  C  C293  1  0.67820000  0.44550000  0.64120000  1.0
  C  C294  1  0.68290000  0.50060000  0.68420000  1.0
  C  C295  1  0.66840000  0.56390000  0.66510000  1.0
  C  C296  1  0.64550000  0.57800000  0.60440000  1.0
  C  C297  1  0.63980000  0.52410000  0.56260000  1.0
  C  C298  1  0.63150000  0.65030000  0.58530000  1.0
  C  C299  1  0.65180000  0.40030000  0.53480000  1.0
  C  C300  1  0.82800000  0.08240000  0.41050000  1.0
  C  C301  1  0.80600000  0.09390000  0.34890000  1.0
  C  C302  1  0.80560000  0.04120000  0.30470000  1.0
  C  C303  1  0.82720000  0.97700000  0.32200000  1.0
  C  C304  1  0.84930000  0.96550000  0.38360000  1.0
  C  C305  1  0.84970000  0.01820000  0.42780000  1.0
  C  C306  1  0.87220000  0.89690000  0.40540000  1.0
  C  C307  1  0.82150000  0.14580000  0.45560000  1.0
  C  C308  1  0.66770000  0.03120000  0.37830000  1.0
  C  C309  1  0.69200000  0.03700000  0.43930000  1.0
  C  C310  1  0.72460000  0.98370000  0.46640000  1.0
  C  C311  1  0.73110000  0.92440000  0.43110000  1.0
  C  C312  1  0.70600000  0.91640000  0.37120000  1.0
  C  C313  1  0.67530000  0.97110000  0.34500000  1.0
  C  C314  1  0.71670000  0.85350000  0.33180000  1.0
  C  C315  1  0.63810000  0.09100000  0.34980000  1.0
  C  C316  1  0.06000000  0.18040000  0.86340000  1.0
  C  C317  1  0.02560000  0.06510000  0.86290000  1.0
  C  C318  1  0.04340000  0.05860000  0.92560000  1.0
  C  C319  1  0.07090000  0.11110000  0.95550000  1.0
  C  C320  1  0.07950000  0.17390000  0.92630000  1.0
  C  C321  1  0.03340000  0.12590000  0.83070000  1.0
  C  C322  1  0.11140000  0.23220000  0.95940000  1.0
  C  C323  1  0.01400000  0.13460000  0.76370000  1.0
  C  C324  1  0.52850000  0.22640000  0.05080000  1.0
  C  C325  1  0.56600000  0.26620000  0.08690000  1.0
  C  C326  1  0.58070000  0.33040000  0.06580000  1.0
  C  C327  1  0.55760000  0.35310000  0.00850000  1.0
  C  C328  1  0.51910000  0.31480000  0.97030000  1.0
  C  C329  1  0.50550000  0.24830000  0.99310000  1.0
  C  C330  1  0.49280000  0.34290000  0.90950000  1.0
  C  C331  1  0.51550000  0.15560000  0.07450000  1.0
  C  C332  1  0.45010000  0.36870000  0.17420000  1.0
  C  C333  1  0.46490000  0.42660000  0.14060000  1.0
  C  C334  1  0.44420000  0.43230000  0.07690000  1.0
  C  C335  1  0.41400000  0.38520000  0.04790000  1.0
  C  C336  1  0.39850000  0.32680000  0.07910000  1.0
  C  C337  1  0.41820000  0.31840000  0.14240000  1.0
  C  C338  1  0.46920000  0.35890000  0.24010000  1.0
  C  C339  1  0.36280000  0.27410000  0.04430000  1.0
  C  C340  1  0.03920000  0.77660000  0.53870000  1.0
  C  C341  1  0.07870000  0.73240000  0.56970000  1.0
  C  C342  1  0.08880000  0.66960000  0.54080000  1.0
  C  C343  1  0.06100000  0.65180000  0.48520000  1.0
  C  C344  1  0.02190000  0.69310000  0.45480000  1.0
  C  C345  1  0.01230000  0.75650000  0.48180000  1.0
  C  C346  1  0.98620000  0.66990000  0.39570000  1.0
  C  C347  1  0.02940000  0.84360000  0.56760000  1.0
  C  C348  1  0.16610000  0.98910000  0.87380000  1.0
  C  C349  1  0.18980000  0.98940000  0.93570000  1.0
  C  C350  1  0.21350000  0.04960000  0.96150000  1.0
  C  C351  1  0.21460000  0.10930000  0.92350000  1.0
  C  C352  1  0.19220000  0.10830000  0.86230000  1.0
  C  C353  1  0.16620000  0.04780000  0.83860000  1.0
  C  C354  1  0.19230000  0.17050000  0.82130000  1.0
  C  C355  1  0.14220000  0.92450000  0.84760000  1.0
  C  C356  1  0.34350000  0.95770000  0.92030000  1.0
  C  C357  1  0.32180000  0.94550000  0.85880000  1.0
  C  C358  1  0.31710000  0.00060000  0.81580000  1.0
  C  C359  1  0.33160000  0.06390000  0.83490000  1.0
  C  C360  1  0.35450000  0.07800000  0.89560000  1.0
  C  C361  1  0.36020000  0.02410000  0.93740000  1.0
  C  C362  1  0.36850000  0.15030000  0.91470000  1.0
  C  C363  1  0.34820000  0.90030000  0.96520000  1.0
  C  C364  1  0.17200000  0.58240000  0.08950000  1.0
  C  C365  1  0.19400000  0.59390000  0.15110000  1.0
  C  C366  1  0.19440000  0.54120000  0.19530000  1.0
  C  C367  1  0.17280000  0.47700000  0.17800000  1.0
  C  C368  1  0.15070000  0.46550000  0.11640000  1.0
  C  C369  1  0.15030000  0.51820000  0.07220000  1.0
  C  C370  1  0.12780000  0.39690000  0.09460000  1.0
  C  C371  1  0.17850000  0.64580000  0.04440000  1.0
  C  C372  1  0.33230000  0.53120000  0.12170000  1.0
  C  C373  1  0.30800000  0.53700000  0.06070000  1.0
  C  C374  1  0.27540000  0.48370000  0.03360000  1.0
  C  C375  1  0.26890000  0.42440000  0.06890000  1.0
  C  C376  1  0.29400000  0.41640000  0.12880000  1.0
  C  C377  1  0.32470000  0.47110000  0.15500000  1.0
  C  C378  1  0.28330000  0.35350000  0.16820000  1.0
  C  C379  1  0.36190000  0.59100000  0.15020000  1.0
  C  C380  1  0.94000000  0.68040000  0.63660000  1.0
  C  C381  1  0.97440000  0.56510000  0.63710000  1.0
  C  C382  1  0.95660000  0.55860000  0.57440000  1.0
  C  C383  1  0.92910000  0.61110000  0.54450000  1.0
  C  C384  1  0.92050000  0.67390000  0.57370000  1.0
  C  C385  1  0.96660000  0.62590000  0.66930000  1.0
  C  C386  1  0.88860000  0.73220000  0.54060000  1.0
  C  C387  1  0.98600000  0.63460000  0.73630000  1.0
  C  C388  1  0.47150000  0.72640000  0.44920000  1.0
  C  C389  1  0.43400000  0.76620000  0.41310000  1.0
  C  C390  1  0.41930000  0.83040000  0.43420000  1.0
  C  C391  1  0.44240000  0.85310000  0.49150000  1.0
  C  C392  1  0.48090000  0.81480000  0.52970000  1.0
  C  C393  1  0.49450000  0.74830000  0.50690000  1.0
  C  C394  1  0.50720000  0.84290000  0.59050000  1.0
  C  C395  1  0.48450000  0.65560000  0.42550000  1.0
  C  C396  1  0.54990000  0.86870000  0.32580000  1.0
  C  C397  1  0.53510000  0.92660000  0.35940000  1.0
  C  C398  1  0.55580000  0.93230000  0.42310000  1.0
  C  C399  1  0.58600000  0.88520000  0.45210000  1.0
  C  C400  1  0.60150000  0.82680000  0.42090000  1.0
  C  C401  1  0.58180000  0.81840000  0.35760000  1.0
  C  C402  1  0.53080000  0.85890000  0.25990000  1.0
  C  C403  1  0.63720000  0.77410000  0.45570000  1.0
  C  C404  1  0.03920000  0.72340000  0.03870000  1.0
  C  C405  1  0.07870000  0.76760000  0.06970000  1.0
  C  C406  1  0.08880000  0.83040000  0.04080000  1.0
  C  C407  1  0.06100000  0.84820000  0.98520000  1.0
  C  C408  1  0.02190000  0.80690000  0.95480000  1.0
  C  C409  1  0.01230000  0.74350000  0.98180000  1.0
  C  C410  1  0.98620000  0.83010000  0.89570000  1.0
  C  C411  1  0.02940000  0.65640000  0.06760000  1.0
  C  C412  1  0.16610000  0.51090000  0.37380000  1.0
  C  C413  1  0.18980000  0.51060000  0.43570000  1.0
  C  C414  1  0.21350000  0.45040000  0.46150000  1.0
  C  C415  1  0.21460000  0.39070000  0.42350000  1.0
  C  C416  1  0.19220000  0.39170000  0.36230000  1.0
  C  C417  1  0.16620000  0.45220000  0.33860000  1.0
  C  C418  1  0.19230000  0.32950000  0.32130000  1.0
  C  C419  1  0.14220000  0.57550000  0.34760000  1.0
  C  C420  1  0.34350000  0.54230000  0.42030000  1.0
  C  C421  1  0.32180000  0.55450000  0.35880000  1.0
  C  C422  1  0.31710000  0.49940000  0.31580000  1.0
  C  C423  1  0.33160000  0.43610000  0.33490000  1.0
  C  C424  1  0.35450000  0.42200000  0.39560000  1.0
  C  C425  1  0.36020000  0.47590000  0.43740000  1.0
  C  C426  1  0.36850000  0.34970000  0.41470000  1.0
  C  C427  1  0.34820000  0.59970000  0.46520000  1.0
  C  C428  1  0.17200000  0.91760000  0.58950000  1.0
  C  C429  1  0.19400000  0.90610000  0.65110000  1.0
  C  C430  1  0.19440000  0.95880000  0.69530000  1.0
  C  C431  1  0.17280000  0.02300000  0.67800000  1.0
  C  C432  1  0.15070000  0.03450000  0.61640000  1.0
  C  C433  1  0.15030000  0.98180000  0.57220000  1.0
  C  C434  1  0.12780000  0.10310000  0.59460000  1.0
  C  C435  1  0.17850000  0.85420000  0.54440000  1.0
  C  C436  1  0.33230000  0.96880000  0.62170000  1.0
  C  C437  1  0.30800000  0.96300000  0.56070000  1.0
  C  C438  1  0.27540000  0.01630000  0.53360000  1.0
  C  C439  1  0.26890000  0.07560000  0.56890000  1.0
  C  C440  1  0.29400000  0.08360000  0.62880000  1.0
  C  C441  1  0.32470000  0.02890000  0.65500000  1.0
  C  C442  1  0.28330000  0.14650000  0.66820000  1.0
  C  C443  1  0.36190000  0.90900000  0.65020000  1.0
  C  C444  1  0.94000000  0.81960000  0.13660000  1.0
  C  C445  1  0.97440000  0.93490000  0.13710000  1.0
  C  C446  1  0.95660000  0.94140000  0.07440000  1.0
  C  C447  1  0.92910000  0.88890000  0.04450000  1.0
  C  C448  1  0.92050000  0.82610000  0.07370000  1.0
  C  C449  1  0.96660000  0.87410000  0.16930000  1.0
  C  C450  1  0.88860000  0.76780000  0.04060000  1.0
  C  C451  1  0.98600000  0.86540000  0.23630000  1.0
  C  C452  1  0.47150000  0.77360000  0.94920000  1.0
  C  C453  1  0.43400000  0.73380000  0.91310000  1.0
  C  C454  1  0.41930000  0.66960000  0.93420000  1.0
  C  C455  1  0.44240000  0.64690000  0.99150000  1.0
  C  C456  1  0.48090000  0.68520000  0.02970000  1.0
  C  C457  1  0.49450000  0.75170000  0.00690000  1.0
  C  C458  1  0.50720000  0.65710000  0.09050000  1.0
  C  C459  1  0.48450000  0.84440000  0.92550000  1.0
  C  C460  1  0.54990000  0.63130000  0.82580000  1.0
  C  C461  1  0.53510000  0.57340000  0.85940000  1.0
  C  C462  1  0.55580000  0.56770000  0.92310000  1.0
  C  C463  1  0.58600000  0.61480000  0.95210000  1.0
  C  C464  1  0.60150000  0.67320000  0.92090000  1.0
  C  C465  1  0.58180000  0.68160000  0.85760000  1.0
  C  C466  1  0.53080000  0.64110000  0.75990000  1.0
  C  C467  1  0.63720000  0.72590000  0.95570000  1.0
  C  C468  1  0.96080000  0.22340000  0.46130000  1.0
  C  C469  1  0.92130000  0.26760000  0.43030000  1.0
  C  C470  1  0.91120000  0.33040000  0.45920000  1.0
  C  C471  1  0.93900000  0.34820000  0.51480000  1.0
  C  C472  1  0.97810000  0.30690000  0.54520000  1.0
  C  C473  1  0.98770000  0.24350000  0.51820000  1.0
  C  C474  1  0.01380000  0.33010000  0.60430000  1.0
  C  C475  1  0.97060000  0.15640000  0.43240000  1.0
  C  C476  1  0.83390000  0.01090000  0.12620000  1.0
  C  C477  1  0.81020000  0.01060000  0.06430000  1.0
  C  C478  1  0.78650000  0.95040000  0.03850000  1.0
  C  C479  1  0.78540000  0.89070000  0.07650000  1.0
  C  C480  1  0.80780000  0.89170000  0.13770000  1.0
  C  C481  1  0.83380000  0.95220000  0.16140000  1.0
  C  C482  1  0.80770000  0.82950000  0.17870000  1.0
  C  C483  1  0.85780000  0.07550000  0.15240000  1.0
  C  C484  1  0.65650000  0.04230000  0.07970000  1.0
  C  C485  1  0.67820000  0.05450000  0.14120000  1.0
  C  C486  1  0.68290000  0.99940000  0.18420000  1.0
  C  C487  1  0.66840000  0.93610000  0.16510000  1.0
  C  C488  1  0.64550000  0.92200000  0.10440000  1.0
  C  C489  1  0.63980000  0.97590000  0.06260000  1.0
  C  C490  1  0.63150000  0.84970000  0.08530000  1.0
  C  C491  1  0.65180000  0.09970000  0.03480000  1.0
  C  C492  1  0.82800000  0.41760000  0.91050000  1.0
  C  C493  1  0.80600000  0.40610000  0.84890000  1.0
  C  C494  1  0.80560000  0.45880000  0.80470000  1.0
  C  C495  1  0.82720000  0.52300000  0.82200000  1.0
  C  C496  1  0.84930000  0.53450000  0.88360000  1.0
  C  C497  1  0.84970000  0.48180000  0.92780000  1.0
  C  C498  1  0.87220000  0.60310000  0.90540000  1.0
  C  C499  1  0.82150000  0.35420000  0.95560000  1.0
  C  C500  1  0.66770000  0.46880000  0.87830000  1.0
  C  C501  1  0.69200000  0.46300000  0.93930000  1.0
  C  C502  1  0.72460000  0.51630000  0.96640000  1.0
  C  C503  1  0.73110000  0.57560000  0.93110000  1.0
  C  C504  1  0.70600000  0.58360000  0.87120000  1.0
  C  C505  1  0.67530000  0.52890000  0.84500000  1.0
  C  C506  1  0.71670000  0.64650000  0.83180000  1.0
  C  C507  1  0.63810000  0.40900000  0.84980000  1.0
  C  C508  1  0.06000000  0.31960000  0.36340000  1.0
  C  C509  1  0.02560000  0.43490000  0.36290000  1.0
  C  C510  1  0.04340000  0.44140000  0.42560000  1.0
  C  C511  1  0.07090000  0.38890000  0.45550000  1.0
  C  C512  1  0.07950000  0.32610000  0.42630000  1.0
  C  C513  1  0.03340000  0.37410000  0.33070000  1.0
  C  C514  1  0.11140000  0.26780000  0.45940000  1.0
  C  C515  1  0.01400000  0.36540000  0.26370000  1.0
  C  C516  1  0.52850000  0.27360000  0.55080000  1.0
  C  C517  1  0.56600000  0.23380000  0.58690000  1.0
  C  C518  1  0.58070000  0.16960000  0.56580000  1.0
  C  C519  1  0.55760000  0.14690000  0.50850000  1.0
  C  C520  1  0.51910000  0.18520000  0.47030000  1.0
  C  C521  1  0.50550000  0.25170000  0.49310000  1.0
  C  C522  1  0.49280000  0.15710000  0.40950000  1.0
  C  C523  1  0.51550000  0.34440000  0.57450000  1.0
  C  C524  1  0.45010000  0.13130000  0.67420000  1.0
  C  C525  1  0.46490000  0.07340000  0.64060000  1.0
  C  C526  1  0.44420000  0.06770000  0.57690000  1.0
  C  C527  1  0.41400000  0.11480000  0.54790000  1.0
  C  C528  1  0.39850000  0.17320000  0.57910000  1.0
  C  C529  1  0.41820000  0.18160000  0.64240000  1.0
  C  C530  1  0.46920000  0.14110000  0.74010000  1.0
  C  C531  1  0.36280000  0.22590000  0.54430000  1.0
  N  N532  1  0.98090000  0.40280000  0.96490000  1.0
  N  N533  1  0.98240000  0.45180000  0.91960000  1.0
  N  N534  1  0.97430000  0.42360000  0.86370000  1.0
  N  N535  1  0.96620000  0.35420000  0.87120000  1.0
  N  N536  1  0.84110000  0.36080000  0.63230000  1.0
  N  N537  1  0.87300000  0.31650000  0.66760000  1.0
  N  N538  1  0.90510000  0.34890000  0.70720000  1.0
  N  N539  1  0.89700000  0.41940000  0.69930000  1.0
  N  N540  1  0.62320000  0.33480000  0.45760000  1.0
  N  N541  1  0.66470000  0.30420000  0.48990000  1.0
  N  N542  1  0.68290000  0.34290000  0.53750000  1.0
  N  N543  1  0.78880000  0.19470000  0.46580000  1.0
  N  N544  1  0.80920000  0.22470000  0.52130000  1.0
  N  N545  1  0.85290000  0.19440000  0.54200000  1.0
  N  N546  1  0.86250000  0.14300000  0.50280000  1.0
  N  N547  1  0.99760000  0.11490000  0.66510000  1.0
  N  N548  1  0.01920000  0.08580000  0.71970000  1.0
  N  N549  1  0.99040000  0.18940000  0.73870000  1.0
  N  N550  1  0.98030000  0.17650000  0.67720000  1.0
  N  N551  1  0.64400000  0.15390000  0.37350000  1.0
  N  N552  1  0.61290000  0.19460000  0.33340000  1.0
  N  N553  1  0.60360000  0.09070000  0.29800000  1.0
  N  N554  1  0.58780000  0.15610000  0.28940000  1.0
  N  N555  1  0.50210000  0.10040000  0.03940000  1.0
  N  N556  1  0.50590000  0.07330000  0.13860000  1.0
  N  N557  1  0.51730000  0.14140000  0.13590000  1.0
  N  N558  1  0.50050000  0.31770000  0.32840000  1.0
  N  N559  1  0.48840000  0.38220000  0.33810000  1.0
  N  N560  1  0.46760000  0.41040000  0.28300000  1.0
  N  N561  1  0.48740000  0.30230000  0.26710000  1.0
  N  N562  1  0.61420000  0.39570000  0.48410000  1.0
  N  N563  1  0.49720000  0.04920000  0.08150000  1.0
  N  N564  1  0.01910000  0.90280000  0.53510000  1.0
  N  N565  1  0.01760000  0.95180000  0.58040000  1.0
  N  N566  1  0.02570000  0.92360000  0.63630000  1.0
  N  N567  1  0.03380000  0.85420000  0.62880000  1.0
  N  N568  1  0.15890000  0.86080000  0.86770000  1.0
  N  N569  1  0.12700000  0.81650000  0.83240000  1.0
  N  N570  1  0.09490000  0.84890000  0.79280000  1.0
  N  N571  1  0.10300000  0.91940000  0.80070000  1.0
  N  N572  1  0.37680000  0.83480000  0.04240000  1.0
  N  N573  1  0.33530000  0.80420000  0.01010000  1.0
  N  N574  1  0.31710000  0.84290000  0.96250000  1.0
  N  N575  1  0.21120000  0.69470000  0.03420000  1.0
  N  N576  1  0.19080000  0.72470000  0.97870000  1.0
  N  N577  1  0.14710000  0.69440000  0.95800000  1.0
  N  N578  1  0.13750000  0.64300000  0.99720000  1.0
  N  N579  1  0.00240000  0.61490000  0.83490000  1.0
  N  N580  1  0.98080000  0.58580000  0.78030000  1.0
  N  N581  1  0.00960000  0.68940000  0.76130000  1.0
  N  N582  1  0.01970000  0.67650000  0.82280000  1.0
  N  N583  1  0.35600000  0.65390000  0.12650000  1.0
  N  N584  1  0.38710000  0.69460000  0.16660000  1.0
  N  N585  1  0.39640000  0.59070000  0.20200000  1.0
  N  N586  1  0.41220000  0.65610000  0.21060000  1.0
  N  N587  1  0.49790000  0.60040000  0.46060000  1.0
  N  N588  1  0.49410000  0.57330000  0.36140000  1.0
  N  N589  1  0.48270000  0.64140000  0.36410000  1.0
  N  N590  1  0.49950000  0.81770000  0.17160000  1.0
  N  N591  1  0.51160000  0.88220000  0.16190000  1.0
  N  N592  1  0.53240000  0.91040000  0.21700000  1.0
  N  N593  1  0.51260000  0.80230000  0.23290000  1.0
  N  N594  1  0.38580000  0.89570000  0.01590000  1.0
  N  N595  1  0.50280000  0.54920000  0.41850000  1.0
  N  N596  1  0.01910000  0.59720000  0.03510000  1.0
  N  N597  1  0.01760000  0.54820000  0.08040000  1.0
  N  N598  1  0.02570000  0.57640000  0.13630000  1.0
  N  N599  1  0.03380000  0.64580000  0.12880000  1.0
  N  N600  1  0.15890000  0.63920000  0.36770000  1.0
  N  N601  1  0.12700000  0.68350000  0.33240000  1.0
  N  N602  1  0.09490000  0.65110000  0.29280000  1.0
  N  N603  1  0.10300000  0.58060000  0.30070000  1.0
  N  N604  1  0.37680000  0.66520000  0.54240000  1.0
  N  N605  1  0.33530000  0.69580000  0.51010000  1.0
  N  N606  1  0.31710000  0.65710000  0.46250000  1.0
  N  N607  1  0.21120000  0.80530000  0.53420000  1.0
  N  N608  1  0.19080000  0.77530000  0.47870000  1.0
  N  N609  1  0.14710000  0.80560000  0.45800000  1.0
  N  N610  1  0.13750000  0.85700000  0.49720000  1.0
  N  N611  1  0.00240000  0.88510000  0.33490000  1.0
  N  N612  1  0.98080000  0.91420000  0.28030000  1.0
  N  N613  1  0.00960000  0.81060000  0.26130000  1.0
  N  N614  1  0.01970000  0.82350000  0.32280000  1.0
  N  N615  1  0.35600000  0.84610000  0.62650000  1.0
  N  N616  1  0.38710000  0.80540000  0.66666667  1.0
  N  N617  1  0.39640000  0.90930000  0.70200000  1.0
  N  N618  1  0.41220000  0.84390000  0.71060000  1.0
  N  N619  1  0.49790000  0.89960000  0.96060000  1.0
  N  N620  1  0.49410000  0.92670000  0.86140000  1.0
  N  N621  1  0.48270000  0.85860000  0.86410000  1.0
  N  N622  1  0.49950000  0.68230000  0.67160000  1.0
  N  N623  1  0.51160000  0.61780000  0.66190000  1.0
  N  N624  1  0.53240000  0.58960000  0.71700000  1.0
  N  N625  1  0.51260000  0.69770000  0.73290000  1.0
  N  N626  1  0.38580000  0.60430000  0.51590000  1.0
  N  N627  1  0.50280000  0.95080000  0.91850000  1.0
  N  N628  1  0.98090000  0.09720000  0.46490000  1.0
  N  N629  1  0.98240000  0.04820000  0.41960000  1.0
  N  N630  1  0.97430000  0.07640000  0.36370000  1.0
  N  N631  1  0.96620000  0.14580000  0.37120000  1.0
  N  N632  1  0.84110000  0.13920000  0.13230000  1.0
  N  N633  1  0.87300000  0.18350000  0.16760000  1.0
  N  N634  1  0.90510000  0.15110000  0.20720000  1.0
  N  N635  1  0.89700000  0.08060000  0.19930000  1.0
  N  N636  1  0.62320000  0.16520000  0.95760000  1.0
  N  N637  1  0.66470000  0.19580000  0.98990000  1.0
  N  N638  1  0.68290000  0.15710000  0.03750000  1.0
  N  N639  1  0.78880000  0.30530000  0.96580000  1.0
  N  N640  1  0.80920000  0.27530000  0.02130000  1.0
  N  N641  1  0.85290000  0.30560000  0.04200000  1.0
  N  N642  1  0.86250000  0.35700000  0.00280000  1.0
  N  N643  1  0.99760000  0.38510000  0.16510000  1.0
  N  N644  1  0.01920000  0.41420000  0.21970000  1.0
  N  N645  1  0.99040000  0.31060000  0.23870000  1.0
  N  N646  1  0.98030000  0.32350000  0.17720000  1.0
  N  N647  1  0.64400000  0.34610000  0.87350000  1.0
  N  N648  1  0.61290000  0.30540000  0.83340000  1.0
  N  N649  1  0.60360000  0.40930000  0.79800000  1.0
  N  N650  1  0.58780000  0.34390000  0.78940000  1.0
  N  N651  1  0.50210000  0.39960000  0.53940000  1.0
  N  N652  1  0.50590000  0.42670000  0.63860000  1.0
  N  N653  1  0.51730000  0.35860000  0.63590000  1.0
  N  N654  1  0.50050000  0.18230000  0.82840000  1.0
  N  N655  1  0.48840000  0.11780000  0.83810000  1.0
  N  N656  1  0.46760000  0.08960000  0.78300000  1.0
  N  N657  1  0.48740000  0.19770000  0.76710000  1.0
  N  N658  1  0.61420000  0.10430000  0.98410000  1.0
  N  N659  1  0.49720000  0.45080000  0.58150000  1.0
