# generated using pymatgen
data_AlH5C8O5
_symmetry_space_group_name_H-M   'P 1'
_cell_length_a   13.34130000
_cell_length_b   16.83360000
_cell_length_c   12.97300000
_cell_angle_alpha   90.00000000
_cell_angle_beta   90.00000000
_cell_angle_gamma   90.00000000
_symmetry_Int_Tables_number   1
_chemical_formula_structural   AlH5C8O5
_chemical_formula_sum   'Al8 H40 C64 O40'
_cell_volume   2913.50368293
_cell_formula_units_Z   8
loop_
 _symmetry_equiv_pos_site_id
 _symmetry_equiv_pos_as_xyz
  1  'x, y, z'
loop_
 _atom_site_type_symbol
 _atom_site_label
 _atom_site_symmetry_multiplicity
 _atom_site_fract_x
 _atom_site_fract_y
 _atom_site_fract_z
 _atom_site_occupancy
  Al  Al0  1  0.12495000  0.24906000  0.74800000  1.0
  Al  Al1  1  0.37461000  0.75213000  0.24721000  1.0
  Al  Al2  1  0.37511000  0.24884000  0.74704000  1.0
  Al  Al3  1  0.12463000  0.75047000  0.24731000  1.0
  Al  Al4  1  0.62503000  0.24900000  0.74820000  1.0
  Al  Al5  1  0.87473000  0.74879000  0.24774000  1.0
  Al  Al6  1  0.87488000  0.24921000  0.74658000  1.0
  Al  Al7  1  0.62471000  0.75048000  0.24750000  1.0
  H  H8  1  0.41028000  0.45177000  0.57492000  1.0
  H  H9  1  0.40992000  0.57365000  0.46371000  1.0
  H  H10  1  0.09193000  0.55086000  0.42232000  1.0
  H  H11  1  0.09224000  0.42857000  0.53324000  1.0
  H  H12  1  0.40754000  0.07230000  0.53484000  1.0
  H  H13  1  0.08900000  0.05069000  0.57253000  1.0
  H  H14  1  0.15709000  0.07073000  0.95813000  1.0
  H  H15  1  0.34448000  0.92508000  0.03211000  1.0
  H  H16  1  0.15748000  0.94879000  0.07039000  1.0
  H  H17  1  0.34152000  0.04649000  0.91884000  1.0
  H  H18  1  0.34214000  0.42374000  0.96709000  1.0
  H  H19  1  0.15993000  0.45016000  0.92225000  1.0
  H  H20  1  0.08919000  0.92970000  0.45912000  1.0
  H  H21  1  0.40791000  0.95102000  0.42132000  1.0
  H  H22  1  0.15966000  0.57142000  0.03465000  1.0
  H  H23  1  0.33943000  0.54559000  0.07837000  1.0
  H  H24  1  0.90720000  0.45438000  0.57661000  1.0
  H  H25  1  0.90435000  0.57601000  0.46422000  1.0
  H  H26  1  0.58897000  0.54324000  0.41343000  1.0
  H  H27  1  0.59175000  0.42188000  0.52567000  1.0
  H  H28  1  0.90735000  0.07552000  0.53166000  1.0
  H  H29  1  0.59119000  0.04483000  0.57880000  1.0
  H  H30  1  0.65779000  0.07720000  0.96524000  1.0
  H  H31  1  0.83898000  0.92711000  0.03154000  1.0
  H  H32  1  0.66081000  0.95619000  0.07880000  1.0
  H  H33  1  0.83869000  0.04870000  0.91933000  1.0
  H  H34  1  0.84189000  0.42678000  0.96378000  1.0
  H  H35  1  0.65765000  0.45586000  0.91614000  1.0
  H  H36  1  0.59411000  0.92296000  0.46644000  1.0
  H  H37  1  0.91027000  0.95400000  0.41909000  1.0
  H  H38  1  0.65479000  0.57798000  0.02757000  1.0
  H  H39  1  0.84160000  0.54844000  0.07591000  1.0
  H  H40  1  0.24966000  0.72405000  0.11816000  1.0
  H  H41  1  0.75060000  0.77684000  0.11868000  1.0
  H  H42  1  0.49883000  0.72551000  0.37725000  1.0
  H  H43  1  0.99979000  0.77823000  0.37566000  1.0
  H  H44  1  0.25074000  0.27314000  0.87895000  1.0
  H  H45  1  0.75098000  0.27624000  0.87764000  1.0
  H  H46  1  0.50088000  0.27347000  0.61632000  1.0
  H  H47  1  0.00082000  0.27594000  0.61694000  1.0
  C  C48  1  0.41083000  0.02604000  0.95439000  1.0
  C  C49  1  0.99783000  0.06671000  0.93269000  1.0
  C  C50  1  0.49773000  0.14027000  0.86793000  1.0
  C  C51  1  0.09054000  0.53929000  0.01876000  1.0
  C  C52  1  0.16110000  0.52849000  0.45619000  1.0
  C  C53  1  0.25085000  0.56933000  0.43653000  1.0
  C  C54  1  0.24982000  0.64182000  0.36967000  1.0
  C  C55  1  0.33846000  0.04046000  0.51761000  1.0
  C  C56  1  0.09078000  0.47188000  0.95681000  1.0
  C  C57  1  0.50015000  0.43237000  0.93541000  1.0
  C  C58  1  0.00189000  0.35872000  0.87010000  1.0
  C  C59  1  0.41249000  0.95888000  0.01680000  1.0
  C  C60  1  0.33867000  0.97338000  0.45503000  1.0
  C  C61  1  0.24863000  0.93337000  0.43389000  1.0
  C  C62  1  0.24946000  0.86166000  0.36613000  1.0
  C  C63  1  0.16142000  0.46068000  0.51748000  1.0
  C  C64  1  0.08826000  0.97123000  0.03674000  1.0
  C  C65  1  0.50289000  0.93343000  0.06122000  1.0
  C  C66  1  0.99935000  0.85875000  0.12471000  1.0
  C  C67  1  0.41019000  0.45787000  0.98068000  1.0
  C  C68  1  0.34108000  0.47363000  0.54060000  1.0
  C  C69  1  0.25141000  0.43259000  0.56000000  1.0
  C  C70  1  0.25213000  0.35983000  0.62630000  1.0
  C  C71  1  0.15845000  0.96130000  0.47611000  1.0
  C  C72  1  0.40858000  0.52563000  0.04204000  1.0
  C  C73  1  0.00056000  0.56691000  0.06170000  1.0
  C  C74  1  0.49533000  0.64174000  0.12537000  1.0
  C  C75  1  0.08803000  0.03869000  0.97481000  1.0
  C  C76  1  0.15819000  0.02835000  0.53870000  1.0
  C  C77  1  0.24821000  0.06834000  0.55970000  1.0
  C  C78  1  0.24767000  0.14012000  0.62740000  1.0
  C  C79  1  0.34079000  0.54141000  0.47925000  1.0
  C  C80  1  0.90792000  0.02636000  0.95310000  1.0
  C  C81  1  0.49949000  0.06858000  0.93578000  1.0
  C  C82  1  0.99735000  0.13895000  0.86570000  1.0
  C  C83  1  0.58691000  0.54363000  0.01374000  1.0
  C  C84  1  0.65810000  0.52348000  0.44998000  1.0
  C  C85  1  0.74644000  0.56681000  0.43293000  1.0
  C  C86  1  0.74504000  0.63909000  0.36608000  1.0
  C  C87  1  0.83938000  0.04153000  0.51692000  1.0
  C  C88  1  0.58847000  0.47583000  0.95239000  1.0
  C  C89  1  0.00107000  0.43103000  0.93710000  1.0
  C  C90  1  0.50203000  0.35975000  0.86886000  1.0
  C  C91  1  0.90822000  0.95893000  0.01508000  1.0
  C  C92  1  0.84096000  0.97408000  0.45497000  1.0
  C  C93  1  0.75245000  0.93116000  0.43697000  1.0
  C  C94  1  0.75400000  0.85879000  0.37007000  1.0
  C  C95  1  0.65975000  0.45601000  0.51184000  1.0
  C  C96  1  0.59148000  0.97614000  0.04284000  1.0
  C  C97  1  0.99833000  0.93087000  0.05734000  1.0
  C  C98  1  0.50437000  0.86144000  0.12846000  1.0
  C  C99  1  0.91105000  0.45882000  0.97985000  1.0
  C  C100  1  0.83806000  0.47421000  0.54015000  1.0
  C  C101  1  0.74974000  0.43083000  0.55732000  1.0
  C  C102  1  0.75174000  0.35862000  0.62450000  1.0
  C  C103  1  0.66214000  0.95685000  0.48137000  1.0
  C  C104  1  0.91074000  0.52627000  0.04177000  1.0
  C  C105  1  0.49687000  0.56907000  0.05888000  1.0
  C  C106  1  0.99975000  0.63894000  0.12903000  1.0
  C  C107  1  0.58984000  0.04329000  0.98038000  1.0
  C  C108  1  0.66050000  0.02431000  0.54331000  1.0
  C  C109  1  0.74912000  0.06703000  0.56154000  1.0
  C  C110  1  0.74748000  0.13912000  0.62880000  1.0
  C  C111  1  0.83651000  0.54168000  0.47830000  1.0
  O  O112  1  0.08137000  0.17181000  0.84682000  1.0
  O  O113  1  0.40968000  0.66516000  0.15725000  1.0
  O  O114  1  0.33392000  0.67507000  0.35059000  1.0
  O  O115  1  0.16277000  0.16370000  0.66001000  1.0
  O  O116  1  0.41830000  0.32621000  0.84962000  1.0
  O  O117  1  0.08445000  0.83570000  0.15715000  1.0
  O  O118  1  0.16538000  0.82856000  0.34657000  1.0
  O  O119  1  0.33758000  0.33549000  0.65715000  1.0
  O  O120  1  0.42073000  0.82857000  0.14822000  1.0
  O  O121  1  0.08740000  0.33470000  0.83911000  1.0
  O  O122  1  0.16783000  0.32765000  0.64665000  1.0
  O  O123  1  0.33427000  0.83851000  0.33317000  1.0
  O  O124  1  0.08384000  0.67207000  0.14816000  1.0
  O  O125  1  0.41274000  0.16237000  0.83385000  1.0
  O  O126  1  0.33171000  0.17263000  0.64700000  1.0
  O  O127  1  0.16474000  0.66475000  0.33716000  1.0
  O  O128  1  0.58114000  0.17427000  0.84964000  1.0
  O  O129  1  0.91496000  0.66204000  0.16198000  1.0
  O  O130  1  0.82874000  0.67186000  0.34655000  1.0
  O  O131  1  0.66261000  0.16133000  0.66313000  1.0
  O  O132  1  0.91766000  0.32663000  0.84935000  1.0
  O  O133  1  0.58978000  0.83789000  0.16083000  1.0
  O  O134  1  0.67032000  0.82584000  0.35047000  1.0
  O  O135  1  0.83742000  0.33604000  0.65679000  1.0
  O  O136  1  0.91523000  0.82561000  0.14435000  1.0
  O  O137  1  0.58765000  0.33686000  0.83666000  1.0
  O  O138  1  0.66809000  0.32514000  0.64415000  1.0
  O  O139  1  0.83964000  0.83534000  0.33804000  1.0
  O  O140  1  0.57903000  0.67467000  0.14470000  1.0
  O  O141  1  0.91253000  0.16263000  0.83290000  1.0
  O  O142  1  0.83090000  0.17336000  0.64642000  1.0
  O  O143  1  0.65965000  0.66269000  0.33389000  1.0
  O  O144  1  0.00017000  0.25109000  0.68429000  1.0
  O  O145  1  0.24964000  0.75146000  0.18386000  1.0
  O  O146  1  0.49956000  0.75158000  0.31064000  1.0
  O  O147  1  0.25025000  0.25030000  0.81042000  1.0
  O  O148  1  0.50032000  0.25021000  0.68461000  1.0
  O  O149  1  0.74980000  0.74914000  0.18419000  1.0
  O  O150  1  0.99971000  0.74926000  0.31106000  1.0
  O  O151  1  0.75024000  0.25110000  0.81047000  1.0
