# generated using pymatgen
data_GaH5C8O5
_symmetry_space_group_name_H-M   'P 1'
_cell_length_a   17.41000000
_cell_length_b   6.74440000
_cell_length_c   12.16460000
_cell_angle_alpha   90.00000000
_cell_angle_beta   90.00000000
_cell_angle_gamma   90.00000000
_symmetry_Int_Tables_number   1
_chemical_formula_structural   GaH5C8O5
_chemical_formula_sum   'Ga4 H20 C32 O20'
_cell_volume   1428.36738066
_cell_formula_units_Z   4
loop_
 _symmetry_equiv_pos_site_id
 _symmetry_equiv_pos_as_xyz
  1  'x, y, z'
loop_
 _atom_site_type_symbol
 _atom_site_label
 _atom_site_symmetry_multiplicity
 _atom_site_fract_x
 _atom_site_fract_y
 _atom_site_fract_z
 _atom_site_occupancy
  Ga  Ga0  1  0.00000000  0.00000000  0.00000000  1.0
  Ga  Ga1  1  0.50000000  0.00000000  0.50000000  1.0
  Ga  Ga2  1  0.00000000  0.50000000  0.00000000  1.0
  Ga  Ga3  1  0.50000000  0.50000000  0.50000000  1.0
  H  H4  1  0.29650000  0.04760000  0.68180000  1.0
  H  H5  1  0.18280000  0.04750000  0.78020000  1.0
  H  H6  1  0.20350000  0.95240000  0.18180000  1.0
  H  H7  1  0.31720000  0.95250000  0.28020000  1.0
  H  H8  1  0.70350000  0.54760000  0.31820000  1.0
  H  H9  1  0.81720000  0.54750000  0.21980000  1.0
  H  H10  1  0.79650000  0.45240000  0.81820000  1.0
  H  H11  1  0.68280000  0.45250000  0.71980000  1.0
  H  H12  1  0.70350000  0.95240000  0.31820000  1.0
  H  H13  1  0.81720000  0.95250000  0.21980000  1.0
  H  H14  1  0.79650000  0.04760000  0.81820000  1.0
  H  H15  1  0.68280000  0.04750000  0.71980000  1.0
  H  H16  1  0.29650000  0.45240000  0.68180000  1.0
  H  H17  1  0.18280000  0.45250000  0.78020000  1.0
  H  H18  1  0.20350000  0.54760000  0.18180000  1.0
  H  H19  1  0.31720000  0.54750000  0.28020000  1.0
  H  H20  1  0.01800000  0.75000000  0.11400000  1.0
  H  H21  1  0.48200000  0.25000000  0.61400000  1.0
  H  H22  1  0.98200000  0.25000000  0.88600000  1.0
  H  H23  1  0.51800000  0.75000000  0.38600000  1.0
  C  C24  1  0.27375000  0.92810000  0.70170000  1.0
  C  C25  1  0.20571000  0.92800000  0.76060000  1.0
  C  C26  1  0.22625000  0.07190000  0.20170000  1.0
  C  C27  1  0.29429000  0.07200000  0.26060000  1.0
  C  C28  1  0.72625000  0.42810000  0.29830000  1.0
  C  C29  1  0.79429000  0.42800000  0.23940000  1.0
  C  C30  1  0.77375000  0.57190000  0.79830000  1.0
  C  C31  1  0.70571000  0.57200000  0.73940000  1.0
  C  C32  1  0.72625000  0.07190000  0.29830000  1.0
  C  C33  1  0.79429000  0.07200000  0.23940000  1.0
  C  C34  1  0.77375000  0.92810000  0.79830000  1.0
  C  C35  1  0.70571000  0.92800000  0.73940000  1.0
  C  C36  1  0.27375000  0.57190000  0.70170000  1.0
  C  C37  1  0.20571000  0.57200000  0.76060000  1.0
  C  C38  1  0.22625000  0.42810000  0.20170000  1.0
  C  C39  1  0.29429000  0.42800000  0.26060000  1.0
  C  C40  1  0.38288000  0.75000000  0.61120000  1.0
  C  C41  1  0.30796000  0.75000000  0.67240000  1.0
  C  C42  1  0.17169000  0.75000000  0.79030000  1.0
  C  C43  1  0.10046000  0.75000000  0.86000000  1.0
  C  C44  1  0.11712000  0.25000000  0.11120000  1.0
  C  C45  1  0.19204000  0.25000000  0.17240000  1.0
  C  C46  1  0.32831000  0.25000000  0.29030000  1.0
  C  C47  1  0.39954000  0.25000000  0.36000000  1.0
  C  C48  1  0.61712000  0.25000000  0.38880000  1.0
  C  C49  1  0.69204000  0.25000000  0.32760000  1.0
  C  C50  1  0.82831000  0.25000000  0.20970000  1.0
  C  C51  1  0.89954000  0.25000000  0.14000000  1.0
  C  C52  1  0.88288000  0.75000000  0.88880000  1.0
  C  C53  1  0.80796000  0.75000000  0.82760000  1.0
  C  C54  1  0.67169000  0.75000000  0.70970000  1.0
  C  C55  1  0.60046000  0.75000000  0.64000000  1.0
  O  O56  1  0.07387000  0.91692000  0.88610000  1.0
  O  O57  1  0.41090000  0.91680000  0.58881000  1.0
  O  O58  1  0.42613000  0.08308000  0.38610000  1.0
  O  O59  1  0.08910000  0.08320000  0.08881000  1.0
  O  O60  1  0.92613000  0.41692000  0.11390000  1.0
  O  O61  1  0.58910000  0.41680000  0.41119000  1.0
  O  O62  1  0.57387000  0.58308000  0.61390000  1.0
  O  O63  1  0.91090000  0.58320000  0.91119000  1.0
  O  O64  1  0.92613000  0.08308000  0.11390000  1.0
  O  O65  1  0.58910000  0.08320000  0.41119000  1.0
  O  O66  1  0.57387000  0.91692000  0.61390000  1.0
  O  O67  1  0.91090000  0.91680000  0.91119000  1.0
  O  O68  1  0.07387000  0.58308000  0.88610000  1.0
  O  O69  1  0.41090000  0.58320000  0.58881000  1.0
  O  O70  1  0.42613000  0.41692000  0.38610000  1.0
  O  O71  1  0.08910000  0.41680000  0.08881000  1.0
  O  O72  1  0.00563000  0.75000000  0.07130000  1.0
  O  O73  1  0.49437000  0.25000000  0.57130000  1.0
  O  O74  1  0.99437000  0.25000000  0.92870000  1.0
  O  O75  1  0.50563000  0.75000000  0.42870000  1.0
