# generated using pymatgen
data_V12Ni4H60C75N15O22
_symmetry_space_group_name_H-M   'P 1'
_cell_length_a   11.27840000
_cell_length_b   22.52100000
_cell_length_c   22.60000000
_cell_angle_alpha   104.62600000
_cell_angle_beta   96.24100000
_cell_angle_gamma   100.21500000
_symmetry_Int_Tables_number   1
_chemical_formula_structural   V12Ni4H60C75N15O22
_chemical_formula_sum   'V24 Ni8 H120 C150 N30 O44'
_cell_volume   5394.87905061
_cell_formula_units_Z   2
loop_
 _symmetry_equiv_pos_site_id
 _symmetry_equiv_pos_as_xyz
  1  'x, y, z'
loop_
 _atom_site_type_symbol
 _atom_site_label
 _atom_site_symmetry_multiplicity
 _atom_site_fract_x
 _atom_site_fract_y
 _atom_site_fract_z
 _atom_site_occupancy
  V  V0  1  0.12786000  0.38186000  0.53766000  1.0
  V  V1  1  0.34130000  0.43947000  0.31489000  1.0
  V  V2  1  0.48263000  0.36269000  0.50166000  1.0
  V  V3  1  0.28907000  0.42073000  0.16120000  1.0
  V  V4  1  0.47678000  0.33776000  0.97899000  1.0
  V  V5  1  0.32527000  0.44828000  0.82133000  1.0
  V  V6  1  0.25349000  0.39590000  0.93683000  1.0
  V  V7  1  0.35199000  0.29158000  0.10295000  1.0
  V  V8  1  0.45560000  0.78335000  0.89567000  1.0
  V  V9  1  0.12340000  0.46966000  0.05097000  1.0
  V  V10  1  0.24159000  0.34443000  0.40324000  1.0
  V  V11  1  0.23200000  0.94002000  0.52488000  1.0
  V  V12  1  0.30686000  0.41164000  0.67177000  1.0
  V  V13  1  0.19247000  0.94718000  0.01622000  1.0
  V  V14  1  0.43660000  0.88186000  0.04030000  1.0
  V  V15  1  0.92412000  0.85570000  0.01756000  1.0
  V  V16  1  0.93430000  0.86690000  0.52297000  1.0
  V  V17  1  0.75402000  0.85536000  0.89629000  1.0
  V  V18  1  0.46140000  0.77154000  0.39405000  1.0
  V  V19  1  0.40278000  0.28606000  0.61556000  1.0
  V  V20  1  0.75150000  0.86040000  0.40070000  1.0
  V  V21  1  0.72917000  0.92878000  0.10523000  1.0
  V  V22  1  0.71310000  0.91953000  0.60493000  1.0
  V  V23  1  0.41220000  0.84617000  0.53544000  1.0
  Ni  Ni24  1  0.24053000  0.12112000  0.05503000  1.0
  Ni  Ni25  1  0.74702000  0.88046000  0.24624000  1.0
  Ni  Ni26  1  0.29652000  0.11335000  0.55700000  1.0
  Ni  Ni27  1  0.40232000  0.62002000  0.89341000  1.0
  Ni  Ni28  1  0.40652000  0.60707000  0.38998000  1.0
  Ni  Ni29  1  0.81212000  0.38584000  0.00952000  1.0
  Ni  Ni30  1  0.81133000  0.38508000  0.50866000  1.0
  Ni  Ni31  1  0.79529000  0.88658000  0.74978000  1.0
  H  H32  1  0.70190000  0.79680000  0.61840000  1.0
  H  H33  1  0.71820000  0.69820000  0.55900000  1.0
  H  H34  1  0.89920000  0.67460000  0.71540000  1.0
  H  H35  1  0.86740000  0.77320000  0.76980000  1.0
  H  H36  1  0.98830000  0.50660000  0.59190000  1.0
  H  H37  1  0.98720000  0.61010000  0.64090000  1.0
  H  H38  1  0.65220000  0.58630000  0.53960000  1.0
  H  H39  1  0.67070000  0.48550000  0.49160000  1.0
  H  H40  1  0.95670000  0.83340000  0.30310000  1.0
  H  H41  1  0.16070000  0.83320000  0.30020000  1.0
  H  H42  1  0.15280000  0.92270000  0.16930000  1.0
  H  H43  1  0.95380000  0.92820000  0.17890000  1.0
  H  H44  1  0.56210000  0.95250000  0.20630000  1.0
  H  H45  1  0.35880000  0.95420000  0.20290000  1.0
  H  H46  1  0.30530000  0.79010000  0.25170000  1.0
  H  H47  1  0.51050000  0.79180000  0.25290000  1.0
  H  H48  1  0.54930000  0.82350000  0.67160000  1.0
  H  H49  1  0.34100000  0.82250000  0.67010000  1.0
  H  H50  1  0.42420000  0.93590000  0.84640000  1.0
  H  H51  1  0.62810000  0.93370000  0.84440000  1.0
  H  H52  1  0.99210000  0.89500000  0.66666667  1.0
  H  H53  1  0.19930000  0.88760000  0.66430000  1.0
  H  H54  1  0.22020000  0.88960000  0.84920000  1.0
  H  H55  1  0.01030000  0.89420000  0.83990000  1.0
  H  H56  1  0.65060000  0.25290000  0.49290000  1.0
  H  H57  1  0.62490000  0.15080000  0.43280000  1.0
  H  H58  1  0.95000000  0.20210000  0.37960000  1.0
  H  H59  1  0.95950000  0.30370000  0.43560000  1.0
  H  H60  1  0.63370000  0.95660000  0.34060000  1.0
  H  H61  1  0.63310000  0.05700000  0.39540000  1.0
  H  H62  1  0.91260000  0.11860000  0.31210000  1.0
  H  H63  1  0.89430000  0.01820000  0.25450000  1.0
  H  H64  1  0.95150000  0.98620000  0.86300000  1.0
  H  H65  1  0.95770000  0.08890000  0.92180000  1.0
  H  H66  1  0.72240000  0.10340000  0.77950000  1.0
  H  H67  1  0.72220000  0.99840000  0.73110000  1.0
  H  H68  1  0.65200000  0.27150000  0.92040000  1.0
  H  H69  1  0.65500000  0.16990000  0.86480000  1.0
  H  H70  1  0.00570000  0.19710000  0.94300000  1.0
  H  H71  1  0.99660000  0.29720000  0.99720000  1.0
  H  H72  1  0.70610000  0.49110000  0.97900000  1.0
  H  H73  1  0.69350000  0.59370000  0.02350000  1.0
  H  H74  1  0.87370000  0.58370000  0.18340000  1.0
  H  H75  1  0.90090000  0.48590000  0.13060000  1.0
  H  H76  1  0.72930000  0.64660000  0.22320000  1.0
  H  H77  1  0.70020000  0.74670000  0.27110000  1.0
  H  H78  1  0.76010000  0.80090000  0.11710000  1.0
  H  H79  1  0.78920000  0.70070000  0.06910000  1.0
  H  H80  1  0.54910000  0.18880000  0.62740000  1.0
  H  H81  1  0.75240000  0.19680000  0.61650000  1.0
  H  H82  1  0.65840000  0.02610000  0.48860000  1.0
  H  H83  1  0.45460000  0.02840000  0.49800000  1.0
  H  H84  1  0.05180000  0.01940000  0.52160000  1.0
  H  H85  1  0.84360000  0.01820000  0.51990000  1.0
  H  H86  1  0.91640000  0.20830000  0.56190000  1.0
  H  H87  1  0.12470000  0.20950000  0.56360000  1.0
  H  H88  1  0.39140000  0.05020000  0.65390000  1.0
  H  H89  1  0.37320000  0.04850000  0.75470000  1.0
  H  H90  1  0.16630000  0.17820000  0.76420000  1.0
  H  H91  1  0.19530000  0.17910000  0.66510000  1.0
  H  H92  1  0.23650000  0.02580000  0.93140000  1.0
  H  H93  1  0.24960000  0.02170000  0.82840000  1.0
  H  H94  1  0.24270000  0.20480000  0.86730000  1.0
  H  H95  1  0.22680000  0.20480000  0.96840000  1.0
  H  H96  1  0.42940000  0.05060000  0.09210000  1.0
  H  H97  1  0.63440000  0.04810000  0.09050000  1.0
  H  H98  1  0.67190000  0.20190000  0.02800000  1.0
  H  H99  1  0.46570000  0.19730000  0.02540000  1.0
  H  H100  1  0.07910000  0.21120000  0.09980000  1.0
  H  H101  1  0.87440000  0.21550000  0.10160000  1.0
  H  H102  1  0.78420000  0.03000000  0.01320000  1.0
  H  H103  1  0.99040000  0.03200000  0.01050000  1.0
  H  H104  1  0.98830000  0.39940000  0.91960000  1.0
  H  H105  1  0.99220000  0.39150000  0.81490000  1.0
  H  H106  1  0.62780000  0.38740000  0.79210000  1.0
  H  H107  1  0.63300000  0.39220000  0.89630000  1.0
  H  H108  1  0.66900000  0.42550000  0.61290000  1.0
  H  H109  1  0.67170000  0.43250000  0.71600000  1.0
  H  H110  1  0.93780000  0.33150000  0.70680000  1.0
  H  H111  1  0.92840000  0.32670000  0.60350000  1.0
  H  H112  1  0.64220000  0.38030000  0.10240000  1.0
  H  H113  1  0.64720000  0.39000000  0.20730000  1.0
  H  H114  1  0.99040000  0.35800000  0.21580000  1.0
  H  H115  1  0.97960000  0.35480000  0.11220000  1.0
  H  H116  1  0.99450000  0.42410000  0.42470000  1.0
  H  H117  1  0.00530000  0.41260000  0.32070000  1.0
  H  H118  1  0.63610000  0.35300000  0.28460000  1.0
  H  H119  1  0.63750000  0.35770000  0.38890000  1.0
  H  H120  1  0.11390000  0.04900000  0.13690000  1.0
  H  H121  1  0.12240000  0.04670000  0.23850000  1.0
  H  H122  1  0.40740000  0.19480000  0.28540000  1.0
  H  H123  1  0.38910000  0.19650000  0.18380000  1.0
  H  H124  1  0.34710000  0.20630000  0.48080000  1.0
  H  H125  1  0.33650000  0.21200000  0.38020000  1.0
  H  H126  1  0.22270000  0.02250000  0.32390000  1.0
  H  H127  1  0.23300000  0.02270000  0.42610000  1.0
  H  H128  1  0.34550000  0.51650000  0.47000000  1.0
  H  H129  1  0.33880000  0.51660000  0.57160000  1.0
  H  H130  1  0.46600000  0.70630000  0.62080000  1.0
  H  H131  1  0.47650000  0.69900000  0.51750000  1.0
  H  H132  1  0.55070000  0.68230000  0.81310000  1.0
  H  H133  1  0.55890000  0.67890000  0.71060000  1.0
  H  H134  1  0.23490000  0.55320000  0.66470000  1.0
  H  H135  1  0.23970000  0.56010000  0.76770000  1.0
  H  H136  1  0.18310000  0.54560000  0.92680000  1.0
  H  H137  1  0.97740000  0.54210000  0.93070000  1.0
  H  H138  1  0.00810000  0.69630000  0.86750000  1.0
  H  H139  1  0.21320000  0.69260000  0.86110000  1.0
  H  H140  1  0.65170000  0.70890000  0.94290000  1.0
  H  H141  1  0.85670000  0.71180000  0.94610000  1.0
  H  H142  1  0.77360000  0.52630000  0.85850000  1.0
  H  H143  1  0.57000000  0.52880000  0.85810000  1.0
  H  H144  1  0.24690000  0.68450000  0.45790000  1.0
  H  H145  1  0.04490000  0.68730000  0.46330000  1.0
  H  H146  1  0.94910000  0.53080000  0.31880000  1.0
  H  H147  1  0.15350000  0.53180000  0.31630000  1.0
  H  H148  1  0.58170000  0.51830000  0.38780000  1.0
  H  H149  1  0.78300000  0.51420000  0.37890000  1.0
  H  H150  1  0.85570000  0.70390000  0.41160000  1.0
  H  H151  1  0.65170000  0.70050000  0.41510000  1.0
  C  C152  1  0.73880000  0.77050000  0.63820000  1.0
  C  C153  1  0.74850000  0.71210000  0.60220000  1.0
  C  C154  1  0.80500000  0.67470000  0.63220000  1.0
  C  C155  1  0.85480000  0.69790000  0.69500000  1.0
  C  C156  1  0.83680000  0.75700000  0.72670000  1.0
  C  C157  1  0.91740000  0.52220000  0.58310000  1.0
  C  C158  1  0.91920000  0.58450000  0.61140000  1.0
  C  C159  1  0.81900000  0.60890000  0.59580000  1.0
  C  C160  1  0.72200000  0.57110000  0.55140000  1.0
  C  C161  1  0.73200000  0.51000000  0.52500000  1.0
  C  C162  1  0.99810000  0.85490000  0.27760000  1.0
  C  C163  1  0.11810000  0.85220000  0.27410000  1.0
  C  C164  1  0.17540000  0.87690000  0.23320000  1.0
  C  C165  1  0.11450000  0.90530000  0.19830000  1.0
  C  C166  1  0.99650000  0.90900000  0.20480000  1.0
  C  C167  1  0.50910000  0.91960000  0.21580000  1.0
  C  C168  1  0.38870000  0.92080000  0.21380000  1.0
  C  C169  1  0.30800000  0.87270000  0.22770000  1.0
  C  C170  1  0.35670000  0.82370000  0.24250000  1.0
  C  C171  1  0.47850000  0.82520000  0.24330000  1.0
  C  C172  1  0.52380000  0.84660000  0.70750000  1.0
  C  C173  1  0.39840000  0.84630000  0.70580000  1.0
  C  C174  1  0.35970000  0.88200000  0.75780000  1.0
  C  C175  1  0.44790000  0.91310000  0.80980000  1.0
  C  C176  1  0.56990000  0.91120000  0.80860000  1.0
  C  C177  1  0.03950000  0.89210000  0.70280000  1.0
  C  C178  1  0.16300000  0.88750000  0.70030000  1.0
  C  C179  1  0.22800000  0.88280000  0.75600000  1.0
  C  C180  1  0.17490000  0.88840000  0.81080000  1.0
  C  C181  1  0.05010000  0.89210000  0.80470000  1.0
  C  C182  1  0.71080000  0.24250000  0.46810000  1.0
  C  C183  1  0.69560000  0.18120000  0.43350000  1.0
  C  C184  1  0.78670000  0.16450000  0.39930000  1.0
  C  C185  1  0.88560000  0.21170000  0.40170000  1.0
  C  C186  1  0.89140000  0.27210000  0.43570000  1.0
  C  C187  1  0.69180000  0.98990000  0.33490000  1.0
  C  C188  1  0.69170000  0.05020000  0.36860000  1.0
  C  C189  1  0.77800000  0.10180000  0.36360000  1.0
  C  C190  1  0.85390000  0.08620000  0.31900000  1.0
  C  C191  1  0.84460000  0.02550000  0.28580000  1.0
  C  C192  1  0.89740000  0.00920000  0.84850000  1.0
  C  C193  1  0.90450000  0.07060000  0.88330000  1.0
  C  C194  1  0.83000000  0.10310000  0.85860000  1.0
  C  C195  1  0.76470000  0.07920000  0.79970000  1.0
  C  C196  1  0.76590000  0.01670000  0.77190000  1.0
  C  C197  1  0.72390000  0.25560000  0.92580000  1.0
  C  C198  1  0.72610000  0.19520000  0.89210000  1.0
  C  C199  1  0.83050000  0.17110000  0.89760000  1.0
  C  C200  1  0.93160000  0.21110000  0.93800000  1.0
  C  C201  1  0.92570000  0.27060000  0.97070000  1.0
  C  C202  1  0.74310000  0.51080000  0.02090000  1.0
  C  C203  1  0.73320000  0.57180000  0.04770000  1.0
  C  C204  1  0.78100000  0.60150000  0.10990000  1.0
  C  C205  1  0.84090000  0.56680000  0.14070000  1.0
  C  C206  1  0.85320000  0.50720000  0.10928000  1.0
  C  C207  1  0.76200000  0.66423000  0.14162000  1.0
  C  C208  1  0.73550000  0.67790000  0.20163000  1.0
  C  C209  1  0.71830000  0.73740000  0.23012000  1.0
  C  C210  1  0.75390000  0.76955000  0.13861000  1.0
  C  C211  1  0.77110000  0.71005000  0.11012000  1.0
  C  C212  1  0.57140000  0.15695000  0.59709000  1.0
  C  C213  1  0.69340000  0.16091000  0.59231000  1.0
  C  C214  1  0.72980000  0.11250000  0.55230000  1.0
  C  C215  1  0.63820000  0.06090000  0.51620000  1.0
  C  C216  1  0.51670000  0.06279000  0.52235000  1.0
  C  C217  1  0.02430000  0.05775000  0.52981000  1.0
  C  C218  1  0.90060000  0.05705000  0.52877000  1.0
  C  C219  1  0.86040000  0.11315000  0.54073000  1.0
  C  C220  1  0.94390000  0.16994000  0.55373000  1.0
  C  C221  1  0.06760000  0.17065000  0.55476000  1.0
  C  C222  1  0.34560000  0.07670000  0.67690000  1.0
  C  C223  1  0.33440000  0.07560000  0.73700000  1.0
  C  C224  1  0.26660000  0.11370000  0.77250000  1.0
  C  C225  1  0.21420000  0.15160000  0.74310000  1.0
  C  C226  1  0.23060000  0.15140000  0.68340000  1.0
  C  C227  1  0.23820000  0.06290000  0.91850000  1.0
  C  C228  1  0.24710000  0.06050000  0.85670000  1.0
  C  C229  1  0.25240000  0.11360000  0.83600000  1.0
  C  C230  1  0.24270000  0.16720000  0.87910000  1.0
  C  C231  1  0.23310000  0.16690000  0.93980000  1.0
  C  C232  1  0.47880000  0.08100000  0.07770000  1.0
  C  C233  1  0.60170000  0.07960000  0.07740000  1.0
  C  C234  1  0.67570000  0.12420000  0.05790000  1.0
  C  C235  1  0.62320000  0.16940000  0.04000000  1.0
  C  C236  1  0.50040000  0.16690000  0.03950000  1.0
  C  C237  1  0.01840000  0.17420000  0.08050000  1.0
  C  C238  1  0.89600000  0.17710000  0.08260000  1.0
  C  C239  1  0.80680000  0.12280000  0.05650000  1.0
  C  C240  1  0.84280000  0.06820000  0.03020000  1.0
  C  C241  1  0.96670000  0.06990000  0.02900000  1.0
  C  C242  1  0.91460000  0.39640000  0.89330000  1.0
  C  C243  1  0.91760000  0.39160000  0.83070000  1.0
  C  C244  1  0.80940000  0.38680000  0.79140000  1.0
  C  C245  1  0.70220000  0.38870000  0.81700000  1.0
  C  C246  1  0.70680000  0.39260000  0.87960000  1.0
  C  C247  1  0.72520000  0.40690000  0.63270000  1.0
  C  C248  1  0.72580000  0.41090000  0.69410000  1.0
  C  C249  1  0.80570000  0.38340000  0.72490000  1.0
  C  C250  1  0.88240000  0.35140000  0.68840000  1.0
  C  C251  1  0.87710000  0.34910000  0.62690000  1.0
  C  C252  1  0.71450000  0.37690000  0.12600000  1.0
  C  C253  1  0.71620000  0.38160000  0.18870000  1.0
  C  C254  1  0.81910000  0.37400000  0.22460000  1.0
  C  C255  1  0.91820000  0.36360000  0.19400000  1.0
  C  C256  1  0.91060000  0.36130000  0.13160000  1.0
  C  C257  1  0.92120000  0.40810000  0.39550000  1.0
  C  C258  1  0.92880000  0.40200000  0.33360000  1.0
  C  C259  1  0.82110000  0.37970000  0.29030000  1.0
  C  C260  1  0.71120000  0.36580000  0.31240000  1.0
  C  C261  1  0.71200000  0.37050000  0.37510000  1.0
  C  C262  1  0.17430000  0.07940000  0.16750000  1.0
  C  C263  1  0.17940000  0.07730000  0.22800000  1.0
  C  C264  1  0.26850000  0.12010000  0.27370000  1.0
  C  C265  1  0.34590000  0.16430000  0.25540000  1.0
  C  C266  1  0.33510000  0.16490000  0.19460000  1.0
  C  C267  1  0.32060000  0.16850000  0.44810000  1.0
  C  C268  1  0.31450000  0.17230000  0.38810000  1.0
  C  C269  1  0.27560000  0.11750000  0.33820000  1.0
  C  C270  1  0.24730000  0.06130000  0.35530000  1.0
  C  C271  1  0.25470000  0.06160000  0.41670000  1.0
  C  C272  1  0.37110000  0.55530000  0.50130000  1.0
  C  C273  1  0.36550000  0.55490000  0.56180000  1.0
  C  C274  1  0.40000000  0.61180000  0.60880000  1.0
  C  C275  1  0.44160000  0.66666667  0.59070000  1.0
  C  C276  1  0.44640000  0.66190000  0.52880000  1.0
  C  C277  1  0.48650000  0.65540000  0.78210000  1.0
  C  C278  1  0.49160000  0.65380000  0.72090000  1.0
  C  C279  1  0.39800000  0.61550000  0.67430000  1.0
  C  C280  1  0.30180000  0.58010000  0.69410000  1.0
  C  C281  1  0.30560000  0.58450000  0.75570000  1.0
  C  C282  1  0.14640000  0.57590000  0.91350000  1.0
  C  C283  1  0.02420000  0.57400000  0.91710000  1.0
  C  C284  1  0.97180000  0.61990000  0.90040000  1.0
  C  C285  1  0.04200000  0.66450000  0.87940000  1.0
  C  C286  1  0.16490000  0.66200000  0.87580000  1.0
  C  C287  1  0.67670000  0.67110000  0.92500000  1.0
  C  C288  1  0.79960000  0.67330000  0.92720000  1.0
  C  C289  1  0.84040000  0.61930000  0.90190000  1.0
  C  C290  1  0.75090000  0.56480000  0.87600000  1.0
  C  C291  1  0.62900000  0.56680000  0.87580000  1.0
  C  C292  1  0.18530000  0.65280000  0.42930000  1.0
  C  C293  1  0.06550000  0.65470000  0.43300000  1.0
  C  C294  1  0.97560000  0.60920000  0.39240000  1.0
  C  C295  1  0.00950000  0.56270000  0.34790000  1.0
  C  C296  1  0.13090000  0.56350000  0.34670000  1.0
  C  C297  1  0.63780000  0.55620000  0.39090000  1.0
  C  C298  1  0.75860000  0.55340000  0.38700000  1.0
  C  C299  1  0.84340000  0.60900000  0.39510000  1.0
  C  C300  1  0.80110000  0.66480000  0.40570000  1.0
  C  C301  1  0.67880000  0.66200000  0.40740000  1.0
  N  N302  1  0.77800000  0.79130000  0.69840000  1.0
  N  N303  1  0.82000000  0.48170000  0.54330000  1.0
  N  N304  1  0.93750000  0.88650000  0.24660000  1.0
  N  N305  1  0.55610000  0.87290000  0.23100000  1.0
  N  N306  1  0.60980000  0.87790000  0.75760000  1.0
  N  N307  1  0.98660000  0.89260000  0.75210000  1.0
  N  N308  1  0.80520000  0.28880000  0.46910000  1.0
  N  N309  1  0.77000000  0.97480000  0.29380000  1.0
  N  N310  1  0.82190000  0.98120000  0.79740000  1.0
  N  N311  1  0.82220000  0.29210000  0.96620000  1.0
  N  N312  1  0.80180000  0.47860000  0.05110000  1.0
  N  N313  1  0.72740000  0.78323000  0.19862000  1.0
  N  N314  1  0.48330000  0.11017000  0.56045000  1.0
  N  N315  1  0.10780000  0.11454000  0.54280000  1.0
  N  N316  1  0.29270000  0.11470000  0.65060000  1.0
  N  N317  1  0.23220000  0.11580000  0.95960000  1.0
  N  N318  1  0.42730000  0.12370000  0.05820000  1.0
  N  N319  1  0.05420000  0.12230000  0.05270000  1.0
  N  N320  1  0.81010000  0.39700000  0.91790000  1.0
  N  N321  1  0.80170000  0.37740000  0.59830000  1.0
  N  N322  1  0.81150000  0.36780000  0.09720000  1.0
  N  N323  1  0.81610000  0.39280000  0.41700000  1.0
  N  N324  1  0.25070000  0.12240000  0.14890000  1.0
  N  N325  1  0.29090000  0.11370000  0.46330000  1.0
  N  N326  1  0.41050000  0.60760000  0.48380000  1.0
  N  N327  1  0.39460000  0.62050000  0.79960000  1.0
  N  N328  1  0.21600000  0.61830000  0.89200000  1.0
  N  N329  1  0.58960000  0.61890000  0.89910000  1.0
  N  N330  1  0.21950000  0.60790000  0.38710000  1.0
  N  N331  1  0.59530000  0.60950000  0.39900000  1.0
  O  O332  1  0.25650000  0.01630000  0.53550000  1.0
  O  O333  1  0.33620000  0.21020000  0.58590000  1.0
  O  O334  1  0.62730000  0.36330000  0.99590000  1.0
  O  O335  1  0.62720000  0.36530000  0.49130000  1.0
  O  O336  1  0.99520000  0.40340000  0.52880000  1.0
  O  O337  1  0.36610000  0.51130000  0.36180000  1.0
  O  O338  1  0.22820000  0.40030000  0.85930000  1.0
  O  O339  1  0.35470000  0.52320000  0.86140000  1.0
  O  O340  1  0.20820000  0.02570000  0.03510000  1.0
  O  O341  1  0.24580000  0.38520000  0.34690000  1.0
  O  O342  1  0.29550000  0.32930000  0.65470000  1.0
  O  O343  1  0.25250000  0.43740000  0.74230000  1.0
  O  O344  1  0.40770000  0.40100000  0.96290000  1.0
  O  O345  1  0.34930000  0.91660000  0.56730000  1.0
  O  O346  1  0.32220000  0.92450000  0.05370000  1.0
  O  O347  1  0.23750000  0.33830000  0.12630000  1.0
  O  O348  1  0.26340000  0.43830000  0.23950000  1.0
  O  O349  1  0.99570000  0.41420000  0.03060000  1.0
  O  O350  1  0.20390000  0.45750000  0.98540000  1.0
  O  O351  1  0.79880000  0.86260000  0.82900000  1.0
  O  O352  1  0.83230000  0.90970000  0.55710000  1.0
  O  O353  1  0.44270000  0.71730000  0.91910000  1.0
  O  O354  1  0.22190000  0.42920000  0.61030000  1.0
  O  O355  1  0.42250000  0.31270000  0.04200000  1.0
  O  O356  1  0.43010000  0.84840000  0.95940000  1.0
  O  O357  1  0.60940000  0.80260000  0.88110000  1.0
  O  O358  1  0.44090000  0.70330000  0.41250000  1.0
  O  O359  1  0.61940000  0.80040000  0.39730000  1.0
  O  O360  1  0.21290000  0.46350000  0.11990000  1.0
  O  O361  1  0.57920000  0.92950000  0.06930000  1.0
  O  O362  1  0.19340000  0.38800000  0.46930000  1.0
  O  O363  1  0.27630000  0.21660000  0.07680000  1.0
  O  O364  1  0.86620000  0.82610000  0.93920000  1.0
  O  O365  1  0.38430000  0.32790000  0.42620000  1.0
  O  O366  1  0.44520000  0.31550000  0.55320000  1.0
  O  O367  1  0.76420000  0.85990000  0.32770000  1.0
  O  O368  1  0.89050000  0.84620000  0.44190000  1.0
  O  O369  1  0.40140000  0.82030000  0.45570000  1.0
  O  O370  1  0.77660000  0.90750000  0.66820000  1.0
  O  O371  1  0.05360000  0.91360000  0.04010000  1.0
  O  O372  1  0.80550000  0.87620000  0.05690000  1.0
  O  O373  1  0.08370000  0.91180000  0.54430000  1.0
  O  O374  1  0.56710000  0.86750000  0.57070000  1.0
  O  O375  1  0.72260000  0.89930000  0.16460000  1.0
