# generated using pymatgen
data_Ag7H20(C6N5)5
_symmetry_space_group_name_H-M   'P 1'
_cell_length_a   12.04200000
_cell_length_b   13.96700000
_cell_length_c   22.75400000
_cell_angle_alpha   95.80200000
_cell_angle_beta   105.21100000
_cell_angle_gamma   104.11800000
_symmetry_Int_Tables_number   1
_chemical_formula_structural   Ag7H20(C6N5)5
_chemical_formula_sum   'Ag14 H40 C60 N50'
_cell_volume   3525.22215350
_cell_formula_units_Z   2
loop_
 _symmetry_equiv_pos_site_id
 _symmetry_equiv_pos_as_xyz
  1  'x, y, z'
loop_
 _atom_site_type_symbol
 _atom_site_label
 _atom_site_symmetry_multiplicity
 _atom_site_fract_x
 _atom_site_fract_y
 _atom_site_fract_z
 _atom_site_occupancy
  Ag  Ag0  1  0.68585000  0.92480000  0.05973000  1.0
  Ag  Ag1  1  0.52685000  0.34810000  0.19687000  1.0
  Ag  Ag2  1  0.18678000  0.67053000  0.56619000  1.0
  Ag  Ag3  1  0.10218000  0.38211000  0.32532000  1.0
  Ag  Ag4  1  0.65217000  0.16240000  0.49887000  1.0
  Ag  Ag5  1  0.64428000  0.51387000  0.35417000  1.0
  Ag  Ag6  1  0.98504000  0.55929000  0.41801000  1.0
  Ag  Ag7  1  0.31415000  0.07520000  0.94027000  1.0
  Ag  Ag8  1  0.47315000  0.65190000  0.80313000  1.0
  Ag  Ag9  1  0.81322000  0.32947000  0.43381000  1.0
  Ag  Ag10  1  0.89782000  0.61789000  0.67468000  1.0
  Ag  Ag11  1  0.34783000  0.83760000  0.50113000  1.0
  Ag  Ag12  1  0.35572000  0.48613000  0.64583000  1.0
  Ag  Ag13  1  0.01496000  0.44071000  0.58199000  1.0
  H  H14  1  0.76030000  0.86680000  0.41200000  1.0
  H  H15  1  0.67570000  0.99660000  0.41510000  1.0
  H  H16  1  0.95330000  0.97500000  0.58710000  1.0
  H  H17  1  0.86090000  0.10070000  0.58740000  1.0
  H  H18  1  0.06010000  0.34890000  0.19320000  1.0
  H  H19  1  0.85760000  0.02990000  0.19200000  1.0
  H  H20  1  0.49960000  0.45210000  0.55930000  1.0
  H  H21  1  0.64210000  0.12900000  0.07100000  1.0
  H  H22  1  0.63300000  0.36320000  0.55980000  1.0
  H  H23  1  0.20270000  0.44150000  0.00650000  1.0
  H  H24  1  0.33210000  0.59090000  0.01540000  1.0
  H  H25  1  0.90510000  0.17150000  0.26480000  1.0
  H  H26  1  0.15520000  0.13000000  0.06360000  1.0
  H  H27  1  0.68590000  0.27560000  0.13810000  1.0
  H  H28  1  0.27030000  0.25810000  0.41200000  1.0
  H  H29  1  0.29270000  0.20510000  0.15610000  1.0
  H  H30  1  0.29700000  0.32220000  0.87170000  1.0
  H  H31  1  0.43120000  0.47310000  0.87400000  1.0
  H  H32  1  0.92510000  0.26470000  0.10080000  1.0
  H  H33  1  0.40290000  0.16610000  0.41930000  1.0
  H  H34  1  0.23970000  0.13320000  0.58800000  1.0
  H  H35  1  0.32430000  0.00340000  0.58490000  1.0
  H  H36  1  0.04670000  0.02500000  0.41290000  1.0
  H  H37  1  0.13910000  0.89930000  0.41260000  1.0
  H  H38  1  0.93990000  0.65110000  0.80680000  1.0
  H  H39  1  0.14240000  0.97010000  0.80800000  1.0
  H  H40  1  0.50040000  0.54790000  0.44070000  1.0
  H  H41  1  0.35790000  0.87100000  0.92900000  1.0
  H  H42  1  0.36700000  0.63680000  0.44020000  1.0
  H  H43  1  0.79730000  0.55850000  0.99350000  1.0
  H  H44  1  0.66790000  0.40910000  0.98460000  1.0
  H  H45  1  0.09490000  0.82850000  0.73520000  1.0
  H  H46  1  0.84480000  0.87000000  0.93640000  1.0
  H  H47  1  0.31410000  0.72440000  0.86190000  1.0
  H  H48  1  0.72970000  0.74190000  0.58800000  1.0
  H  H49  1  0.70730000  0.79490000  0.84390000  1.0
  H  H50  1  0.70300000  0.67780000  0.12830000  1.0
  H  H51  1  0.56880000  0.52690000  0.12600000  1.0
  H  H52  1  0.07490000  0.73530000  0.89920000  1.0
  H  H53  1  0.59710000  0.83390000  0.58070000  1.0
  C  C54  1  0.78230000  0.91390000  0.44800000  1.0
  C  C55  1  0.73270000  0.99180000  0.45050000  1.0
  C  C56  1  0.86710000  0.90750000  0.50140000  1.0
  C  C57  1  0.89560000  0.97760000  0.55140000  1.0
  C  C58  1  0.84120000  0.05420000  0.55140000  1.0
  C  C59  1  0.08010000  0.30390000  0.16760000  1.0
  C  C60  1  0.28370000  0.34250000  0.24270000  1.0
  C  C61  1  0.82150000  0.08010000  0.18170000  1.0
  C  C62  1  0.47870000  0.39350000  0.53050000  1.0
  C  C63  1  0.69550000  0.13760000  0.11030000  1.0
  C  C64  1  0.55780000  0.34030000  0.53060000  1.0
  C  C65  1  0.24980000  0.44860000  0.97980000  1.0
  C  C66  1  0.36560000  0.36100000  0.48740000  1.0
  C  C67  1  0.19160000  0.28680000  0.18460000  1.0
  C  C68  1  0.48430000  0.64830000  0.95170000  1.0
  C  C69  1  0.28130000  0.42190000  0.48820000  1.0
  C  C70  1  0.81300000  0.32630000  0.25620000  1.0
  C  C71  1  0.32630000  0.53730000  0.98580000  1.0
  C  C72  1  0.85150000  0.16470000  0.22580000  1.0
  C  C73  1  0.92370000  0.82400000  0.49900000  1.0
  C  C74  1  0.39930000  0.54850000  0.94560000  1.0
  C  C75  1  0.13620000  0.17320000  0.09080000  1.0
  C  C76  1  0.72080000  0.22550000  0.15050000  1.0
  C  C77  1  0.34200000  0.27820000  0.44400000  1.0
  C  C78  1  0.21880000  0.21870000  0.14500000  1.0
  C  C79  1  0.79790000  0.23960000  0.20930000  1.0
  C  C80  1  0.30480000  0.37800000  0.90010000  1.0
  C  C81  1  0.38620000  0.46750000  0.90170000  1.0
  C  C82  1  0.00030000  0.25360000  0.11250000  1.0
  C  C83  1  0.42310000  0.22540000  0.44740000  1.0
  C  C84  1  0.21770000  0.08610000  0.55200000  1.0
  C  C85  1  0.26730000  0.00820000  0.54950000  1.0
  C  C86  1  0.13290000  0.09250000  0.49860000  1.0
  C  C87  1  0.10440000  0.02240000  0.44860000  1.0
  C  C88  1  0.15880000  0.94580000  0.44860000  1.0
  C  C89  1  0.91990000  0.69610000  0.83240000  1.0
  C  C90  1  0.71630000  0.65750000  0.75730000  1.0
  C  C91  1  0.17850000  0.91990000  0.81830000  1.0
  C  C92  1  0.52130000  0.60650000  0.46950000  1.0
  C  C93  1  0.30450000  0.86240000  0.88970000  1.0
  C  C94  1  0.44220000  0.65970000  0.46940000  1.0
  C  C95  1  0.75020000  0.55140000  0.02020000  1.0
  C  C96  1  0.63440000  0.63900000  0.51260000  1.0
  C  C97  1  0.80840000  0.71320000  0.81540000  1.0
  C  C98  1  0.51570000  0.35170000  0.04830000  1.0
  C  C99  1  0.71870000  0.57810000  0.51180000  1.0
  C  C100  1  0.18700000  0.67370000  0.74380000  1.0
  C  C101  1  0.67370000  0.46270000  0.01420000  1.0
  C  C102  1  0.14850000  0.83530000  0.77420000  1.0
  C  C103  1  0.07630000  0.17600000  0.50100000  1.0
  C  C104  1  0.60070000  0.45150000  0.05440000  1.0
  C  C105  1  0.86380000  0.82680000  0.90920000  1.0
  C  C106  1  0.27920000  0.77450000  0.84950000  1.0
  C  C107  1  0.65800000  0.72180000  0.55600000  1.0
  C  C108  1  0.78120000  0.78130000  0.85500000  1.0
  C  C109  1  0.20210000  0.76040000  0.79070000  1.0
  C  C110  1  0.69520000  0.62200000  0.09990000  1.0
  C  C111  1  0.61380000  0.53250000  0.09830000  1.0
  C  C112  1  0.99970000  0.74640000  0.88750000  1.0
  C  C113  1  0.57690000  0.77460000  0.55260000  1.0
  N  N114  1  0.74400000  0.06490000  0.12500000  1.0
  N  N115  1  0.44960000  0.41820000  0.31110000  1.0
  N  N116  1  0.40150000  0.36340000  0.25310000  1.0
  N  N117  1  0.25860000  0.37900000  0.29240000  1.0
  N  N118  1  0.72200000  0.36910000  0.25670000  1.0
  N  N119  1  0.76500000  0.44050000  0.30670000  1.0
  N  N120  1  0.18870000  0.42310000  0.44060000  1.0
  N  N121  1  0.19660000  0.52390000  0.52130000  1.0
  N  N122  1  0.59880000  0.77740000  0.93350000  1.0
  N  N123  1  0.36480000  0.42800000  0.33510000  1.0
  N  N124  1  0.87800000  0.44100000  0.33490000  1.0
  N  N125  1  0.28570000  0.48070000  0.53950000  1.0
  N  N126  1  0.97150000  0.69640000  0.46900000  1.0
  N  N127  1  0.01170000  0.81410000  0.54890000  1.0
  N  N128  1  0.02650000  0.18830000  0.07450000  1.0
  N  N129  1  0.76190000  0.06210000  0.50120000  1.0
  N  N130  1  0.23550000  0.36930000  0.93880000  1.0
  N  N131  1  0.52570000  0.68700000  0.90710000  1.0
  N  N132  1  0.53270000  0.25540000  0.49010000  1.0
  N  N133  1  0.90910000  0.37330000  0.30420000  1.0
  N  N134  1  0.13780000  0.49040000  0.46320000  1.0
  N  N135  1  0.89730000  0.75330000  0.45120000  1.0
  N  N136  1  0.52690000  0.71280000  0.00480000  1.0
  N  N137  1  0.59840000  0.79100000  0.99170000  1.0
  N  N138  1  0.03650000  0.73380000  0.52580000  1.0
  N  N139  1  0.25600000  0.93510000  0.87500000  1.0
  N  N140  1  0.55040000  0.58180000  0.68890000  1.0
  N  N141  1  0.59850000  0.63660000  0.74690000  1.0
  N  N142  1  0.74140000  0.62100000  0.70760000  1.0
  N  N143  1  0.27800000  0.63090000  0.74330000  1.0
  N  N144  1  0.23500000  0.55950000  0.69330000  1.0
  N  N145  1  0.81130000  0.57690000  0.55940000  1.0
  N  N146  1  0.80340000  0.47610000  0.47870000  1.0
  N  N147  1  0.40120000  0.22260000  0.06650000  1.0
  N  N148  1  0.63520000  0.57200000  0.66490000  1.0
  N  N149  1  0.12200000  0.55900000  0.66510000  1.0
  N  N150  1  0.71430000  0.51930000  0.46050000  1.0
  N  N151  1  0.02850000  0.30360000  0.53100000  1.0
  N  N152  1  0.98830000  0.18590000  0.45110000  1.0
  N  N153  1  0.97350000  0.81170000  0.92550000  1.0
  N  N154  1  0.23810000  0.93790000  0.49880000  1.0
  N  N155  1  0.76450000  0.63070000  0.06120000  1.0
  N  N156  1  0.47430000  0.31300000  0.09290000  1.0
  N  N157  1  0.46730000  0.74460000  0.50990000  1.0
  N  N158  1  0.09090000  0.62670000  0.69580000  1.0
  N  N159  1  0.86220000  0.50960000  0.53680000  1.0
  N  N160  1  0.10270000  0.24670000  0.54880000  1.0
  N  N161  1  0.47310000  0.28720000  0.99520000  1.0
  N  N162  1  0.40160000  0.20900000  0.00830000  1.0
  N  N163  1  0.96350000  0.26620000  0.47420000  1.0
