# generated using pymatgen
data_ScH16C20N4O5
_symmetry_space_group_name_H-M   'P 1'
_cell_length_a   23.99500000
_cell_length_b   23.99500000
_cell_length_c   3.94980000
_cell_angle_alpha   90.00000000
_cell_angle_beta   90.00000000
_cell_angle_gamma   90.00000000
_symmetry_Int_Tables_number   1
_chemical_formula_structural   ScH16C20N4O5
_chemical_formula_sum   'Sc4 H64 C80 N16 O20'
_cell_volume   2274.13694675
_cell_formula_units_Z   4
loop_
 _symmetry_equiv_pos_site_id
 _symmetry_equiv_pos_as_xyz
  1  'x, y, z'
loop_
 _atom_site_type_symbol
 _atom_site_label
 _atom_site_symmetry_multiplicity
 _atom_site_fract_x
 _atom_site_fract_y
 _atom_site_fract_z
 _atom_site_occupancy
  Sc  Sc0  1  0.50000000  0.50000000  0.50000000  1.0
  Sc  Sc1  1  0.00000000  0.00000000  0.00000000  1.0
  Sc  Sc2  1  0.00000000  0.50000000  0.25000000  1.0
  Sc  Sc3  1  0.50000000  0.00000000  0.75000000  1.0
  H  H4  1  0.36420000  0.37150000  0.71330000  1.0
  H  H5  1  0.36250000  0.28470000  0.96830000  1.0
  H  H6  1  0.52910000  0.37710000  0.79060000  1.0
  H  H7  1  0.52940000  0.29060000  0.05370000  1.0
  H  H8  1  0.86420000  0.87150000  0.21330000  1.0
  H  H9  1  0.86250000  0.78470000  0.46830000  1.0
  H  H10  1  0.02910000  0.87710000  0.29060000  1.0
  H  H11  1  0.02940000  0.79060000  0.55370000  1.0
  H  H12  1  0.63580000  0.62850000  0.71330000  1.0
  H  H13  1  0.63750000  0.71530000  0.96830000  1.0
  H  H14  1  0.47090000  0.62290000  0.79060000  1.0
  H  H15  1  0.47060000  0.70940000  0.05370000  1.0
  H  H16  1  0.13580000  0.12850000  0.21330000  1.0
  H  H17  1  0.13750000  0.21530000  0.46830000  1.0
  H  H18  1  0.97090000  0.12290000  0.29060000  1.0
  H  H19  1  0.97060000  0.20940000  0.55370000  1.0
  H  H20  1  0.37150000  0.63580000  0.28670000  1.0
  H  H21  1  0.28470000  0.63750000  0.03170000  1.0
  H  H22  1  0.37710000  0.47090000  0.20940000  1.0
  H  H23  1  0.29060000  0.47060000  0.94630000  1.0
  H  H24  1  0.87150000  0.13580000  0.78670000  1.0
  H  H25  1  0.78470000  0.13750000  0.53170000  1.0
  H  H26  1  0.87710000  0.97090000  0.70940000  1.0
  H  H27  1  0.79060000  0.97060000  0.44630000  1.0
  H  H28  1  0.62850000  0.36420000  0.28670000  1.0
  H  H29  1  0.71530000  0.36250000  0.03170000  1.0
  H  H30  1  0.62290000  0.52910000  0.20940000  1.0
  H  H31  1  0.70940000  0.52940000  0.94630000  1.0
  H  H32  1  0.12850000  0.86420000  0.78670000  1.0
  H  H33  1  0.21530000  0.86250000  0.53170000  1.0
  H  H34  1  0.12290000  0.02910000  0.70940000  1.0
  H  H35  1  0.20940000  0.02940000  0.44630000  1.0
  H  H36  1  0.13580000  0.37150000  0.03670000  1.0
  H  H37  1  0.13750000  0.28470000  0.78170000  1.0
  H  H38  1  0.97090000  0.37710000  0.95940000  1.0
  H  H39  1  0.97060000  0.29060000  0.69630000  1.0
  H  H40  1  0.63580000  0.87150000  0.53670000  1.0
  H  H41  1  0.63750000  0.78470000  0.28170000  1.0
  H  H42  1  0.47090000  0.87710000  0.45940000  1.0
  H  H43  1  0.47060000  0.79060000  0.19630000  1.0
  H  H44  1  0.86420000  0.62850000  0.03670000  1.0
  H  H45  1  0.86250000  0.71530000  0.78170000  1.0
  H  H46  1  0.02910000  0.62290000  0.95940000  1.0
  H  H47  1  0.02940000  0.70940000  0.69630000  1.0
  H  H48  1  0.36420000  0.12850000  0.53670000  1.0
  H  H49  1  0.36250000  0.21530000  0.28170000  1.0
  H  H50  1  0.52910000  0.12290000  0.45940000  1.0
  H  H51  1  0.52940000  0.20940000  0.19630000  1.0
  H  H52  1  0.12850000  0.63580000  0.46330000  1.0
  H  H53  1  0.21530000  0.63750000  0.71830000  1.0
  H  H54  1  0.12290000  0.47090000  0.54060000  1.0
  H  H55  1  0.20940000  0.47060000  0.80370000  1.0
  H  H56  1  0.62850000  0.13580000  0.96330000  1.0
  H  H57  1  0.71530000  0.13750000  0.21830000  1.0
  H  H58  1  0.62290000  0.97090000  0.04060000  1.0
  H  H59  1  0.70940000  0.97060000  0.30370000  1.0
  H  H60  1  0.87150000  0.36420000  0.46330000  1.0
  H  H61  1  0.78470000  0.36250000  0.71830000  1.0
  H  H62  1  0.87710000  0.52910000  0.54060000  1.0
  H  H63  1  0.79060000  0.52940000  0.80370000  1.0
  H  H64  1  0.37150000  0.86420000  0.96330000  1.0
  H  H65  1  0.28470000  0.86250000  0.21830000  1.0
  H  H66  1  0.37710000  0.02910000  0.04060000  1.0
  H  H67  1  0.29060000  0.02940000  0.30370000  1.0
  C  C68  1  0.39812000  0.35438000  0.78010000  1.0
  C  C69  1  0.39714000  0.30305000  0.93470000  1.0
  C  C70  1  0.49496000  0.35783000  0.82590000  1.0
  C  C71  1  0.49505000  0.30651000  0.98370000  1.0
  C  C72  1  0.44581000  0.27764000  0.04210000  1.0
  C  C73  1  0.89812000  0.85438000  0.28010000  1.0
  C  C74  1  0.89714000  0.80305000  0.43470000  1.0
  C  C75  1  0.99496000  0.85783000  0.32590000  1.0
  C  C76  1  0.99505000  0.80651000  0.48370000  1.0
  C  C77  1  0.94581000  0.77764000  0.54210000  1.0
  C  C78  1  0.60188000  0.64562000  0.78010000  1.0
  C  C79  1  0.60286000  0.69695000  0.93470000  1.0
  C  C80  1  0.50504000  0.64217000  0.82590000  1.0
  C  C81  1  0.50495000  0.69349000  0.98370000  1.0
  C  C82  1  0.55419000  0.72236000  0.04210000  1.0
  C  C83  1  0.10188000  0.14562000  0.28010000  1.0
  C  C84  1  0.10286000  0.19695000  0.43470000  1.0
  C  C85  1  0.00504000  0.14217000  0.32590000  1.0
  C  C86  1  0.00495000  0.19349000  0.48370000  1.0
  C  C87  1  0.05419000  0.22236000  0.54210000  1.0
  C  C88  1  0.35438000  0.60188000  0.21990000  1.0
  C  C89  1  0.30305000  0.60286000  0.06530000  1.0
  C  C90  1  0.35783000  0.50504000  0.17410000  1.0
  C  C91  1  0.30651000  0.50495000  0.01630000  1.0
  C  C92  1  0.27764000  0.55419000  0.95790000  1.0
  C  C93  1  0.85438000  0.10188000  0.71990000  1.0
  C  C94  1  0.80305000  0.10286000  0.56530000  1.0
  C  C95  1  0.85783000  0.00504000  0.67410000  1.0
  C  C96  1  0.80651000  0.00495000  0.51630000  1.0
  C  C97  1  0.77764000  0.05419000  0.45790000  1.0
  C  C98  1  0.64562000  0.39812000  0.21990000  1.0
  C  C99  1  0.69695000  0.39714000  0.06530000  1.0
  C  C100  1  0.64217000  0.49496000  0.17410000  1.0
  C  C101  1  0.69349000  0.49505000  0.01630000  1.0
  C  C102  1  0.72236000  0.44581000  0.95790000  1.0
  C  C103  1  0.14562000  0.89812000  0.71990000  1.0
  C  C104  1  0.19695000  0.89714000  0.56530000  1.0
  C  C105  1  0.14217000  0.99496000  0.67410000  1.0
  C  C106  1  0.19349000  0.99505000  0.51630000  1.0
  C  C107  1  0.22236000  0.94581000  0.45790000  1.0
  C  C108  1  0.10188000  0.35438000  0.96990000  1.0
  C  C109  1  0.10286000  0.30305000  0.81530000  1.0
  C  C110  1  0.00504000  0.35783000  0.92410000  1.0
  C  C111  1  0.00495000  0.30651000  0.76630000  1.0
  C  C112  1  0.05419000  0.27764000  0.70790000  1.0
  C  C113  1  0.60188000  0.85438000  0.46990000  1.0
  C  C114  1  0.60286000  0.80305000  0.31530000  1.0
  C  C115  1  0.50504000  0.85783000  0.42410000  1.0
  C  C116  1  0.50495000  0.80651000  0.26630000  1.0
  C  C117  1  0.55419000  0.77764000  0.20790000  1.0
  C  C118  1  0.89812000  0.64562000  0.96990000  1.0
  C  C119  1  0.89714000  0.69695000  0.81530000  1.0
  C  C120  1  0.99496000  0.64217000  0.92410000  1.0
  C  C121  1  0.99505000  0.69349000  0.76630000  1.0
  C  C122  1  0.94581000  0.72236000  0.70790000  1.0
  C  C123  1  0.39812000  0.14562000  0.46990000  1.0
  C  C124  1  0.39714000  0.19695000  0.31530000  1.0
  C  C125  1  0.49496000  0.14217000  0.42410000  1.0
  C  C126  1  0.49505000  0.19349000  0.26630000  1.0
  C  C127  1  0.44581000  0.22236000  0.20790000  1.0
  C  C128  1  0.14562000  0.60188000  0.53010000  1.0
  C  C129  1  0.19695000  0.60286000  0.68470000  1.0
  C  C130  1  0.14217000  0.50504000  0.57590000  1.0
  C  C131  1  0.19349000  0.50495000  0.73370000  1.0
  C  C132  1  0.22236000  0.55419000  0.79210000  1.0
  C  C133  1  0.64562000  0.10188000  0.03010000  1.0
  C  C134  1  0.69695000  0.10286000  0.18470000  1.0
  C  C135  1  0.64217000  0.00504000  0.07590000  1.0
  C  C136  1  0.69349000  0.00495000  0.23370000  1.0
  C  C137  1  0.72236000  0.05419000  0.29210000  1.0
  C  C138  1  0.85438000  0.39812000  0.53010000  1.0
  C  C139  1  0.80305000  0.39714000  0.68470000  1.0
  C  C140  1  0.85783000  0.49496000  0.57590000  1.0
  C  C141  1  0.80651000  0.49505000  0.73370000  1.0
  C  C142  1  0.77764000  0.44581000  0.79210000  1.0
  C  C143  1  0.35438000  0.89812000  0.03010000  1.0
  C  C144  1  0.30305000  0.89714000  0.18470000  1.0
  C  C145  1  0.35783000  0.99496000  0.07590000  1.0
  C  C146  1  0.30651000  0.99505000  0.23370000  1.0
  C  C147  1  0.27764000  0.94581000  0.29210000  1.0
  N  N148  1  0.44706000  0.38055000  0.72270000  1.0
  N  N149  1  0.94706000  0.88055000  0.22270000  1.0
  N  N150  1  0.55294000  0.61945000  0.72270000  1.0
  N  N151  1  0.05294000  0.11945000  0.22270000  1.0
  N  N152  1  0.38055000  0.55294000  0.27730000  1.0
  N  N153  1  0.88055000  0.05294000  0.77730000  1.0
  N  N154  1  0.61945000  0.44706000  0.27730000  1.0
  N  N155  1  0.11945000  0.94706000  0.77730000  1.0
  N  N156  1  0.05294000  0.38055000  0.02730000  1.0
  N  N157  1  0.55294000  0.88055000  0.52730000  1.0
  N  N158  1  0.94706000  0.61945000  0.02730000  1.0
  N  N159  1  0.44706000  0.11945000  0.52730000  1.0
  N  N160  1  0.11945000  0.55294000  0.47270000  1.0
  N  N161  1  0.61945000  0.05294000  0.97270000  1.0
  N  N162  1  0.88055000  0.44706000  0.47270000  1.0
  N  N163  1  0.38055000  0.94706000  0.97270000  1.0
  O  O164  1  0.44664000  0.42893000  0.56140000  1.0
  O  O165  1  0.94664000  0.92893000  0.06140000  1.0
  O  O166  1  0.55336000  0.57107000  0.56140000  1.0
  O  O167  1  0.05336000  0.07107000  0.06140000  1.0
  O  O168  1  0.42893000  0.55336000  0.43860000  1.0
  O  O169  1  0.92893000  0.05336000  0.93860000  1.0
  O  O170  1  0.57107000  0.44664000  0.43860000  1.0
  O  O171  1  0.07107000  0.94664000  0.93860000  1.0
  O  O172  1  0.05336000  0.42893000  0.18860000  1.0
  O  O173  1  0.55336000  0.92893000  0.68860000  1.0
  O  O174  1  0.94664000  0.57107000  0.18860000  1.0
  O  O175  1  0.44664000  0.07107000  0.68860000  1.0
  O  O176  1  0.07107000  0.55336000  0.31140000  1.0
  O  O177  1  0.57107000  0.05336000  0.81140000  1.0
  O  O178  1  0.92893000  0.44664000  0.31140000  1.0
  O  O179  1  0.42893000  0.94664000  0.81140000  1.0
  O  O180  1  0.50000000  0.50000000  0.00000000  1.0
  O  O181  1  0.00000000  0.00000000  0.50000000  1.0
  O  O182  1  0.00000000  0.50000000  0.75000000  1.0
  O  O183  1  0.50000000  0.00000000  0.25000000  1.0
