# generated using pymatgen
data_CrGa3P4H26C8(N3O8)2
_symmetry_space_group_name_H-M   'P 1'
_cell_length_a   23.71600000
_cell_length_b   23.71600000
_cell_length_c   13.44700000
_cell_angle_alpha   90.00000000
_cell_angle_beta   90.00000000
_cell_angle_gamma   120.00000000
_symmetry_Int_Tables_number   1
_chemical_formula_structural   CrGa3P4H26C8(N3O8)2
_chemical_formula_sum   'Cr9 Ga27 P36 H234 C72 N54 O144'
_cell_volume   6549.96410398
_cell_formula_units_Z   9
loop_
 _symmetry_equiv_pos_site_id
 _symmetry_equiv_pos_as_xyz
  1  'x, y, z'
loop_
 _atom_site_type_symbol
 _atom_site_label
 _atom_site_symmetry_multiplicity
 _atom_site_fract_x
 _atom_site_fract_y
 _atom_site_fract_z
 _atom_site_occupancy
  Cr  Cr0  1  0.35001000  0.24270000  0.91476000  1.0
  Cr  Cr1  1  0.01668000  0.57603000  0.24809000  1.0
  Cr  Cr2  1  0.68334000  0.90937000  0.58143000  1.0
  Cr  Cr3  1  0.75730000  0.10731000  0.91476000  1.0
  Cr  Cr4  1  0.42397000  0.44064000  0.24809000  1.0
  Cr  Cr5  1  0.09063000  0.77398000  0.58143000  1.0
  Cr  Cr6  1  0.89269000  0.64999000  0.91476000  1.0
  Cr  Cr7  1  0.55936000  0.98332000  0.24809000  1.0
  Cr  Cr8  1  0.22602000  0.31666000  0.58143000  1.0
  Ga  Ga9  1  0.36008000  0.09296000  0.12055000  1.0
  Ga  Ga10  1  0.24270000  0.89269000  0.08524000  1.0
  Ga  Ga11  1  0.02675000  0.42629000  0.45388000  1.0
  Ga  Ga12  1  0.90937000  0.22602000  0.41857000  1.0
  Ga  Ga13  1  0.69341000  0.75963000  0.78722000  1.0
  Ga  Ga14  1  0.57603000  0.55936000  0.75191000  1.0
  Ga  Ga15  1  0.90704000  0.26712000  0.12055000  1.0
  Ga  Ga16  1  0.10731000  0.35001000  0.08524000  1.0
  Ga  Ga17  1  0.57371000  0.60045000  0.45388000  1.0
  Ga  Ga18  1  0.77398000  0.68334000  0.41857000  1.0
  Ga  Ga19  1  0.24037000  0.93379000  0.78722000  1.0
  Ga  Ga20  1  0.44064000  0.01668000  0.75191000  1.0
  Ga  Ga21  1  0.73288000  0.63992000  0.12055000  1.0
  Ga  Ga22  1  0.64999000  0.75730000  0.08524000  1.0
  Ga  Ga23  1  0.39955000  0.97325000  0.45388000  1.0
  Ga  Ga24  1  0.31666000  0.09063000  0.41857000  1.0
  Ga  Ga25  1  0.06621000  0.30659000  0.78722000  1.0
  Ga  Ga26  1  0.98332000  0.42397000  0.75191000  1.0
  Ga  Ga27  1  0.63992000  0.90704000  0.87945000  1.0
  Ga  Ga28  1  0.30659000  0.24037000  0.21278000  1.0
  Ga  Ga29  1  0.97325000  0.57371000  0.54612000  1.0
  Ga  Ga30  1  0.09296000  0.73288000  0.87945000  1.0
  Ga  Ga31  1  0.75963000  0.06621000  0.21278000  1.0
  Ga  Ga32  1  0.42629000  0.39955000  0.54612000  1.0
  Ga  Ga33  1  0.26712000  0.36008000  0.87945000  1.0
  Ga  Ga34  1  0.93379000  0.69341000  0.21278000  1.0
  Ga  Ga35  1  0.60045000  0.02675000  0.54612000  1.0
  P  P36  1  0.41877000  0.23605000  0.11916000  1.0
  P  P37  1  0.32672000  0.98706000  0.27788000  1.0
  P  P38  1  0.08544000  0.56938000  0.45249000  1.0
  P  P39  1  0.99339000  0.32039000  0.61121000  1.0
  P  P40  1  0.75210000  0.90272000  0.78583000  1.0
  P  P41  1  0.66005000  0.65373000  0.94455000  1.0
  P  P42  1  0.76395000  0.18272000  0.11916000  1.0
  P  P43  1  0.01294000  0.33966000  0.27788000  1.0
  P  P44  1  0.43062000  0.51605000  0.45249000  1.0
  P  P45  1  0.67961000  0.67299000  0.61121000  1.0
  P  P46  1  0.09728000  0.84939000  0.78583000  1.0
  P  P47  1  0.34627000  0.00633000  0.94455000  1.0
  P  P48  1  0.81728000  0.58123000  0.11916000  1.0
  P  P49  1  0.66034000  0.67328000  0.27788000  1.0
  P  P50  1  0.48395000  0.91456000  0.45249000  1.0
  P  P51  1  0.32701000  0.00661000  0.61121000  1.0
  P  P52  1  0.15061000  0.24790000  0.78583000  1.0
  P  P53  1  0.99367000  0.33995000  0.94455000  1.0
  P  P54  1  0.58123000  0.76395000  0.88084000  1.0
  P  P55  1  0.67328000  0.01294000  0.72212000  1.0
  P  P56  1  0.24790000  0.09728000  0.21417000  1.0
  P  P57  1  0.33995000  0.34627000  0.05545000  1.0
  P  P58  1  0.91456000  0.43062000  0.54751000  1.0
  P  P59  1  0.00661000  0.67961000  0.38879000  1.0
  P  P60  1  0.23605000  0.81728000  0.88084000  1.0
  P  P61  1  0.98706000  0.66034000  0.72212000  1.0
  P  P62  1  0.90272000  0.15061000  0.21417000  1.0
  P  P63  1  0.65373000  0.99367000  0.05545000  1.0
  P  P64  1  0.56938000  0.48395000  0.54751000  1.0
  P  P65  1  0.32039000  0.32701000  0.38879000  1.0
  P  P66  1  0.18272000  0.41877000  0.88084000  1.0
  P  P67  1  0.33966000  0.32672000  0.72212000  1.0
  P  P68  1  0.84939000  0.75210000  0.21417000  1.0
  P  P69  1  0.00633000  0.66005000  0.05545000  1.0
  P  P70  1  0.51605000  0.08544000  0.54751000  1.0
  P  P71  1  0.67299000  0.99339000  0.38879000  1.0
  H  H72  1  0.47700000  0.29570000  0.92520000  1.0
  H  H73  1  0.45710000  0.30320000  0.82110000  1.0
  H  H74  1  0.33030000  0.12360000  0.89680000  1.0
  H  H75  1  0.22870000  0.20080000  0.91180000  1.0
  H  H76  1  0.24700000  0.19360000  0.01770000  1.0
  H  H77  1  0.44900000  0.19150000  0.88920000  1.0
  H  H78  1  0.48720000  0.23640000  0.79950000  1.0
  H  H79  1  0.38190000  0.13070000  0.75190000  1.0
  H  H80  1  0.38360000  0.19690000  0.72520000  1.0
  H  H81  1  0.25360000  0.07830000  0.80660000  1.0
  H  H82  1  0.26140000  0.14760000  0.75960000  1.0
  H  H83  1  0.18020000  0.10550000  0.87800000  1.0
  H  H84  1  0.22980000  0.10120000  0.95400000  1.0
  H  H85  1  0.14367000  0.62903000  0.25853000  1.0
  H  H86  1  0.12377000  0.63653000  0.15443000  1.0
  H  H87  1  0.99697000  0.45693000  0.23013000  1.0
  H  H88  1  0.89537000  0.53413000  0.24513000  1.0
  H  H89  1  0.91367000  0.52693000  0.35103000  1.0
  H  H90  1  0.11567000  0.52483000  0.22253000  1.0
  H  H91  1  0.15387000  0.56973000  0.13283000  1.0
  H  H92  1  0.04857000  0.46403000  0.08523000  1.0
  H  H93  1  0.05027000  0.53023000  0.05853000  1.0
  H  H94  1  0.92027000  0.41163000  0.13993000  1.0
  H  H95  1  0.92807000  0.48093000  0.09293000  1.0
  H  H96  1  0.84687000  0.43883000  0.21133000  1.0
  H  H97  1  0.89647000  0.43453000  0.28733000  1.0
  H  H98  1  0.81033000  0.96237000  0.59187000  1.0
  H  H99  1  0.79043000  0.96987000  0.48777000  1.0
  H  H100  1  0.66363000  0.79027000  0.56347000  1.0
  H  H101  1  0.56203000  0.86747000  0.57847000  1.0
  H  H102  1  0.58033000  0.86027000  0.68437000  1.0
  H  H103  1  0.78233000  0.85817000  0.55587000  1.0
  H  H104  1  0.82053000  0.90307000  0.46617000  1.0
  H  H105  1  0.71523000  0.79737000  0.41857000  1.0
  H  H106  1  0.71693000  0.86357000  0.39187000  1.0
  H  H107  1  0.58693000  0.74497000  0.47327000  1.0
  H  H108  1  0.59473000  0.81427000  0.42627000  1.0
  H  H109  1  0.51353000  0.77217000  0.54467000  1.0
  H  H110  1  0.56313000  0.76787000  0.62067000  1.0
  H  H111  1  0.70430000  0.18130000  0.92520000  1.0
  H  H112  1  0.69680000  0.15390000  0.82110000  1.0
  H  H113  1  0.87640000  0.20670000  0.89680000  1.0
  H  H114  1  0.79920000  0.02790000  0.91180000  1.0
  H  H115  1  0.80640000  0.05340000  0.01770000  1.0
  H  H116  1  0.80850000  0.25750000  0.88920000  1.0
  H  H117  1  0.76360000  0.25080000  0.79950000  1.0
  H  H118  1  0.86930000  0.25120000  0.75190000  1.0
  H  H119  1  0.80310000  0.18670000  0.72520000  1.0
  H  H120  1  0.92170000  0.17530000  0.80660000  1.0
  H  H121  1  0.85240000  0.11380000  0.75960000  1.0
  H  H122  1  0.89450000  0.07470000  0.87800000  1.0
  H  H123  1  0.89880000  0.12860000  0.95400000  1.0
  H  H124  1  0.37097000  0.51463000  0.25853000  1.0
  H  H125  1  0.36347000  0.48723000  0.15443000  1.0
  H  H126  1  0.54307000  0.54003000  0.23013000  1.0
  H  H127  1  0.46587000  0.36123000  0.24513000  1.0
  H  H128  1  0.47307000  0.38673000  0.35103000  1.0
  H  H129  1  0.47517000  0.59083000  0.22253000  1.0
  H  H130  1  0.43027000  0.58413000  0.13283000  1.0
  H  H131  1  0.53597000  0.58453000  0.08523000  1.0
  H  H132  1  0.46977000  0.52003000  0.05853000  1.0
  H  H133  1  0.58837000  0.50863000  0.13993000  1.0
  H  H134  1  0.51907000  0.44713000  0.09293000  1.0
  H  H135  1  0.56117000  0.40803000  0.21133000  1.0
  H  H136  1  0.56547000  0.46193000  0.28733000  1.0
  H  H137  1  0.03763000  0.84797000  0.59187000  1.0
  H  H138  1  0.03013000  0.82057000  0.48777000  1.0
  H  H139  1  0.20973000  0.87337000  0.56347000  1.0
  H  H140  1  0.13253000  0.69457000  0.57847000  1.0
  H  H141  1  0.13973000  0.72007000  0.68437000  1.0
  H  H142  1  0.14183000  0.92417000  0.55587000  1.0
  H  H143  1  0.09693000  0.91747000  0.46617000  1.0
  H  H144  1  0.20263000  0.91787000  0.41857000  1.0
  H  H145  1  0.13643000  0.85337000  0.39187000  1.0
  H  H146  1  0.25503000  0.84197000  0.47327000  1.0
  H  H147  1  0.18573000  0.78047000  0.42627000  1.0
  H  H148  1  0.22783000  0.74137000  0.54467000  1.0
  H  H149  1  0.23213000  0.79527000  0.62067000  1.0
  H  H150  1  0.81870000  0.52300000  0.92520000  1.0
  H  H151  1  0.84610000  0.54290000  0.82110000  1.0
  H  H152  1  0.79330000  0.66970000  0.89680000  1.0
  H  H153  1  0.97210000  0.77130000  0.91180000  1.0
  H  H154  1  0.94660000  0.75300000  0.01770000  1.0
  H  H155  1  0.74250000  0.55100000  0.88920000  1.0
  H  H156  1  0.74920000  0.51280000  0.79950000  1.0
  H  H157  1  0.74880000  0.61810000  0.75190000  1.0
  H  H158  1  0.81330000  0.61640000  0.72520000  1.0
  H  H159  1  0.82470000  0.74640000  0.80660000  1.0
  H  H160  1  0.88620000  0.73860000  0.75960000  1.0
  H  H161  1  0.92530000  0.81980000  0.87800000  1.0
  H  H162  1  0.87140000  0.77020000  0.95400000  1.0
  H  H163  1  0.48537000  0.85633000  0.25853000  1.0
  H  H164  1  0.51277000  0.87623000  0.15443000  1.0
  H  H165  1  0.45997000  0.00303000  0.23013000  1.0
  H  H166  1  0.63877000  0.10463000  0.24513000  1.0
  H  H167  1  0.61327000  0.08633000  0.35103000  1.0
  H  H168  1  0.40917000  0.88433000  0.22253000  1.0
  H  H169  1  0.41587000  0.84613000  0.13283000  1.0
  H  H170  1  0.41547000  0.95143000  0.08523000  1.0
  H  H171  1  0.47997000  0.94973000  0.05853000  1.0
  H  H172  1  0.49137000  0.07973000  0.13993000  1.0
  H  H173  1  0.55287000  0.07193000  0.09293000  1.0
  H  H174  1  0.59197000  0.15313000  0.21133000  1.0
  H  H175  1  0.53807000  0.10353000  0.28733000  1.0
  H  H176  1  0.15203000  0.18967000  0.59187000  1.0
  H  H177  1  0.17943000  0.20957000  0.48777000  1.0
  H  H178  1  0.12663000  0.33637000  0.56347000  1.0
  H  H179  1  0.30543000  0.43797000  0.57847000  1.0
  H  H180  1  0.27993000  0.41967000  0.68437000  1.0
  H  H181  1  0.07583000  0.21767000  0.55587000  1.0
  H  H182  1  0.08253000  0.17947000  0.46617000  1.0
  H  H183  1  0.08213000  0.28477000  0.41857000  1.0
  H  H184  1  0.14663000  0.28307000  0.39187000  1.0
  H  H185  1  0.15803000  0.41307000  0.47327000  1.0
  H  H186  1  0.21953000  0.40527000  0.42627000  1.0
  H  H187  1  0.25863000  0.48647000  0.54467000  1.0
  H  H188  1  0.20473000  0.43687000  0.62067000  1.0
  H  H189  1  0.52300000  0.70430000  0.07480000  1.0
  H  H190  1  0.54290000  0.69680000  0.17890000  1.0
  H  H191  1  0.66970000  0.87640000  0.10320000  1.0
  H  H192  1  0.77130000  0.79920000  0.08820000  1.0
  H  H193  1  0.75300000  0.80640000  0.98230000  1.0
  H  H194  1  0.55100000  0.80850000  0.11080000  1.0
  H  H195  1  0.51280000  0.76360000  0.20050000  1.0
  H  H196  1  0.61810000  0.86930000  0.24810000  1.0
  H  H197  1  0.61640000  0.80310000  0.27480000  1.0
  H  H198  1  0.74640000  0.92170000  0.19340000  1.0
  H  H199  1  0.73860000  0.85240000  0.24040000  1.0
  H  H200  1  0.81980000  0.89450000  0.12200000  1.0
  H  H201  1  0.77020000  0.89880000  0.04600000  1.0
  H  H202  1  0.18967000  0.03763000  0.40813000  1.0
  H  H203  1  0.20957000  0.03013000  0.51223000  1.0
  H  H204  1  0.33637000  0.20973000  0.43653000  1.0
  H  H205  1  0.43797000  0.13253000  0.42153000  1.0
  H  H206  1  0.41967000  0.13973000  0.31563000  1.0
  H  H207  1  0.21767000  0.14183000  0.44413000  1.0
  H  H208  1  0.17947000  0.09693000  0.53383000  1.0
  H  H209  1  0.28477000  0.20263000  0.58143000  1.0
  H  H210  1  0.28307000  0.13643000  0.60813000  1.0
  H  H211  1  0.41307000  0.25503000  0.52673000  1.0
  H  H212  1  0.40527000  0.18573000  0.57373000  1.0
  H  H213  1  0.48647000  0.22783000  0.45533000  1.0
  H  H214  1  0.43687000  0.23213000  0.37933000  1.0
  H  H215  1  0.85633000  0.37097000  0.74147000  1.0
  H  H216  1  0.87623000  0.36347000  0.84557000  1.0
  H  H217  1  0.00303000  0.54307000  0.76987000  1.0
  H  H218  1  0.10463000  0.46587000  0.75487000  1.0
  H  H219  1  0.08633000  0.47307000  0.64897000  1.0
  H  H220  1  0.88433000  0.47517000  0.77747000  1.0
  H  H221  1  0.84613000  0.43027000  0.86717000  1.0
  H  H222  1  0.95143000  0.53597000  0.91477000  1.0
  H  H223  1  0.94973000  0.46977000  0.94147000  1.0
  H  H224  1  0.07973000  0.58837000  0.86007000  1.0
  H  H225  1  0.07193000  0.51907000  0.90707000  1.0
  H  H226  1  0.15313000  0.56117000  0.78867000  1.0
  H  H227  1  0.10353000  0.56547000  0.71267000  1.0
  H  H228  1  0.29570000  0.81870000  0.07480000  1.0
  H  H229  1  0.30320000  0.84610000  0.17890000  1.0
  H  H230  1  0.12360000  0.79330000  0.10320000  1.0
  H  H231  1  0.20080000  0.97210000  0.08820000  1.0
  H  H232  1  0.19360000  0.94660000  0.98230000  1.0
  H  H233  1  0.19150000  0.74250000  0.11080000  1.0
  H  H234  1  0.23640000  0.74920000  0.20050000  1.0
  H  H235  1  0.13070000  0.74880000  0.24810000  1.0
  H  H236  1  0.19690000  0.81330000  0.27480000  1.0
  H  H237  1  0.07830000  0.82470000  0.19340000  1.0
  H  H238  1  0.14760000  0.88620000  0.24040000  1.0
  H  H239  1  0.10550000  0.92530000  0.12200000  1.0
  H  H240  1  0.10120000  0.87140000  0.04600000  1.0
  H  H241  1  0.96237000  0.15203000  0.40813000  1.0
  H  H242  1  0.96987000  0.17943000  0.51223000  1.0
  H  H243  1  0.79027000  0.12663000  0.43653000  1.0
  H  H244  1  0.86747000  0.30543000  0.42153000  1.0
  H  H245  1  0.86027000  0.27993000  0.31563000  1.0
  H  H246  1  0.85817000  0.07583000  0.44413000  1.0
  H  H247  1  0.90307000  0.08253000  0.53383000  1.0
  H  H248  1  0.79737000  0.08213000  0.58143000  1.0
  H  H249  1  0.86357000  0.14663000  0.60813000  1.0
  H  H250  1  0.74497000  0.15803000  0.52673000  1.0
  H  H251  1  0.81427000  0.21953000  0.57373000  1.0
  H  H252  1  0.77217000  0.25863000  0.45533000  1.0
  H  H253  1  0.76787000  0.20473000  0.37933000  1.0
  H  H254  1  0.62903000  0.48537000  0.74147000  1.0
  H  H255  1  0.63653000  0.51277000  0.84557000  1.0
  H  H256  1  0.45693000  0.45997000  0.76987000  1.0
  H  H257  1  0.53413000  0.63877000  0.75487000  1.0
  H  H258  1  0.52693000  0.61327000  0.64897000  1.0
  H  H259  1  0.52483000  0.40917000  0.77747000  1.0
  H  H260  1  0.56973000  0.41587000  0.86717000  1.0
  H  H261  1  0.46403000  0.41547000  0.91477000  1.0
  H  H262  1  0.53023000  0.47997000  0.94147000  1.0
  H  H263  1  0.41163000  0.49137000  0.86007000  1.0
  H  H264  1  0.48093000  0.55287000  0.90707000  1.0
  H  H265  1  0.43883000  0.59197000  0.78867000  1.0
  H  H266  1  0.43453000  0.53807000  0.71267000  1.0
  H  H267  1  0.18130000  0.47700000  0.07480000  1.0
  H  H268  1  0.15390000  0.45710000  0.17890000  1.0
  H  H269  1  0.20670000  0.33030000  0.10320000  1.0
  H  H270  1  0.02790000  0.22870000  0.08820000  1.0
  H  H271  1  0.05340000  0.24700000  0.98230000  1.0
  H  H272  1  0.25750000  0.44900000  0.11080000  1.0
  H  H273  1  0.25080000  0.48720000  0.20050000  1.0
  H  H274  1  0.25120000  0.38190000  0.24810000  1.0
  H  H275  1  0.18670000  0.38360000  0.27480000  1.0
  H  H276  1  0.17530000  0.25360000  0.19340000  1.0
  H  H277  1  0.11380000  0.26140000  0.24040000  1.0
  H  H278  1  0.07470000  0.18020000  0.12200000  1.0
  H  H279  1  0.12860000  0.22980000  0.04600000  1.0
  H  H280  1  0.84797000  0.81033000  0.40813000  1.0
  H  H281  1  0.82057000  0.79043000  0.51223000  1.0
  H  H282  1  0.87337000  0.66363000  0.43653000  1.0
  H  H283  1  0.69457000  0.56203000  0.42153000  1.0
  H  H284  1  0.72007000  0.58033000  0.31563000  1.0
  H  H285  1  0.92417000  0.78233000  0.44413000  1.0
  H  H286  1  0.91747000  0.82053000  0.53383000  1.0
  H  H287  1  0.91787000  0.71523000  0.58143000  1.0
  H  H288  1  0.85337000  0.71693000  0.60813000  1.0
  H  H289  1  0.84197000  0.58693000  0.52673000  1.0
  H  H290  1  0.78047000  0.59473000  0.57373000  1.0
  H  H291  1  0.74137000  0.51353000  0.45533000  1.0
  H  H292  1  0.79527000  0.56313000  0.37933000  1.0
  H  H293  1  0.51463000  0.14367000  0.74147000  1.0
  H  H294  1  0.48723000  0.12377000  0.84557000  1.0
  H  H295  1  0.54003000  0.99697000  0.76987000  1.0
  H  H296  1  0.36123000  0.89537000  0.75487000  1.0
  H  H297  1  0.38673000  0.91367000  0.64897000  1.0
  H  H298  1  0.59083000  0.11567000  0.77747000  1.0
  H  H299  1  0.58413000  0.15387000  0.86717000  1.0
  H  H300  1  0.58453000  0.04857000  0.91477000  1.0
  H  H301  1  0.52003000  0.05027000  0.94147000  1.0
  H  H302  1  0.50863000  0.92027000  0.86007000  1.0
  H  H303  1  0.44713000  0.92807000  0.90707000  1.0
  H  H304  1  0.40803000  0.84687000  0.78867000  1.0
  H  H305  1  0.46193000  0.89647000  0.71267000  1.0
  C  C306  1  0.44710000  0.21800000  0.82990000  1.0
  C  C307  1  0.38470000  0.17190000  0.78060000  1.0
  C  C308  1  0.26500000  0.12240000  0.81660000  1.0
  C  C309  1  0.22410000  0.12130000  0.90260000  1.0
  C  C310  1  0.11377000  0.55133000  0.16323000  1.0
  C  C311  1  0.05137000  0.50523000  0.11393000  1.0
  C  C312  1  0.93167000  0.45573000  0.14993000  1.0
  C  C313  1  0.89077000  0.45463000  0.23593000  1.0
  C  C314  1  0.78043000  0.88467000  0.49657000  1.0
  C  C315  1  0.71803000  0.83857000  0.44727000  1.0
  C  C316  1  0.59833000  0.78907000  0.48327000  1.0
  C  C317  1  0.55743000  0.78797000  0.56927000  1.0
  C  C318  1  0.78200000  0.22910000  0.82990000  1.0
  C  C319  1  0.82810000  0.21280000  0.78060000  1.0
  C  C320  1  0.87760000  0.14260000  0.81660000  1.0
  C  C321  1  0.87870000  0.10280000  0.90260000  1.0
  C  C322  1  0.44867000  0.56243000  0.16323000  1.0
  C  C323  1  0.49477000  0.54613000  0.11393000  1.0
  C  C324  1  0.54427000  0.47593000  0.14993000  1.0
  C  C325  1  0.54537000  0.43613000  0.23593000  1.0
  C  C326  1  0.11533000  0.89577000  0.49657000  1.0
  C  C327  1  0.16143000  0.87947000  0.44727000  1.0
  C  C328  1  0.21093000  0.80927000  0.48327000  1.0
  C  C329  1  0.21203000  0.76947000  0.56927000  1.0
  C  C330  1  0.77090000  0.55290000  0.82990000  1.0
  C  C331  1  0.78720000  0.61530000  0.78060000  1.0
  C  C332  1  0.85740000  0.73500000  0.81660000  1.0
  C  C333  1  0.89720000  0.77590000  0.90260000  1.0
  C  C334  1  0.43757000  0.88623000  0.16323000  1.0
  C  C335  1  0.45387000  0.94863000  0.11393000  1.0
  C  C336  1  0.52407000  0.06833000  0.14993000  1.0
  C  C337  1  0.56387000  0.10923000  0.23593000  1.0
  C  C338  1  0.10423000  0.21957000  0.49657000  1.0
  C  C339  1  0.12053000  0.28197000  0.44727000  1.0
  C  C340  1  0.19073000  0.40167000  0.48327000  1.0
  C  C341  1  0.23053000  0.44257000  0.56927000  1.0
  C  C342  1  0.55290000  0.78200000  0.17010000  1.0
  C  C343  1  0.61530000  0.82810000  0.21940000  1.0
  C  C344  1  0.73500000  0.87760000  0.18340000  1.0
  C  C345  1  0.77590000  0.87870000  0.09740000  1.0
  C  C346  1  0.21957000  0.11533000  0.50343000  1.0
  C  C347  1  0.28197000  0.16143000  0.55273000  1.0
  C  C348  1  0.40167000  0.21093000  0.51673000  1.0
  C  C349  1  0.44257000  0.21203000  0.43073000  1.0
  C  C350  1  0.88623000  0.44867000  0.83677000  1.0
  C  C351  1  0.94863000  0.49477000  0.88607000  1.0
  C  C352  1  0.06833000  0.54427000  0.85007000  1.0
  C  C353  1  0.10923000  0.54537000  0.76407000  1.0
  C  C354  1  0.21800000  0.77090000  0.17010000  1.0
  C  C355  1  0.17190000  0.78720000  0.21940000  1.0
  C  C356  1  0.12240000  0.85740000  0.18340000  1.0
  C  C357  1  0.12130000  0.89720000  0.09740000  1.0
  C  C358  1  0.88467000  0.10423000  0.50343000  1.0
  C  C359  1  0.83857000  0.12053000  0.55273000  1.0
  C  C360  1  0.78907000  0.19073000  0.51673000  1.0
  C  C361  1  0.78797000  0.23053000  0.43073000  1.0
  C  C362  1  0.55133000  0.43757000  0.83677000  1.0
  C  C363  1  0.50523000  0.45387000  0.88607000  1.0
  C  C364  1  0.45573000  0.52407000  0.85007000  1.0
  C  C365  1  0.45463000  0.56387000  0.76407000  1.0
  C  C366  1  0.22910000  0.44710000  0.17010000  1.0
  C  C367  1  0.21280000  0.38470000  0.21940000  1.0
  C  C368  1  0.14260000  0.26500000  0.18340000  1.0
  C  C369  1  0.10280000  0.22410000  0.09740000  1.0
  C  C370  1  0.89577000  0.78043000  0.50343000  1.0
  C  C371  1  0.87947000  0.71803000  0.55273000  1.0
  C  C372  1  0.80927000  0.59833000  0.51673000  1.0
  C  C373  1  0.76947000  0.55743000  0.43073000  1.0
  C  C374  1  0.56243000  0.11377000  0.83677000  1.0
  C  C375  1  0.54613000  0.05137000  0.88607000  1.0
  C  C376  1  0.47593000  0.93167000  0.85007000  1.0
  C  C377  1  0.43613000  0.89077000  0.76407000  1.0
  N  N378  1  0.44440000  0.27530000  0.86920000  1.0
  N  N379  1  0.33250000  0.15710000  0.85090000  1.0
  N  N380  1  0.25130000  0.18880000  0.94050000  1.0
  N  N381  1  0.11107000  0.60863000  0.20253000  1.0
  N  N382  1  0.99917000  0.49043000  0.18423000  1.0
  N  N383  1  0.91797000  0.52213000  0.27383000  1.0
  N  N384  1  0.77773000  0.94197000  0.53587000  1.0
  N  N385  1  0.66583000  0.82377000  0.51757000  1.0
  N  N386  1  0.58463000  0.85547000  0.60717000  1.0
  N  N387  1  0.72470000  0.16910000  0.86920000  1.0
  N  N388  1  0.84290000  0.17540000  0.85090000  1.0
  N  N389  1  0.81120000  0.06250000  0.94050000  1.0
  N  N390  1  0.39137000  0.50243000  0.20253000  1.0
  N  N391  1  0.50957000  0.50873000  0.18423000  1.0
  N  N392  1  0.47787000  0.39583000  0.27383000  1.0
  N  N393  1  0.05803000  0.83577000  0.53587000  1.0
  N  N394  1  0.17623000  0.84207000  0.51757000  1.0
  N  N395  1  0.14453000  0.72917000  0.60717000  1.0
  N  N396  1  0.83090000  0.55560000  0.86920000  1.0
  N  N397  1  0.82460000  0.66750000  0.85090000  1.0
  N  N398  1  0.93750000  0.74870000  0.94050000  1.0
  N  N399  1  0.49757000  0.88893000  0.20253000  1.0
  N  N400  1  0.49127000  0.00083000  0.18423000  1.0
  N  N401  1  0.60417000  0.08203000  0.27383000  1.0
  N  N402  1  0.16423000  0.22227000  0.53587000  1.0
  N  N403  1  0.15793000  0.33417000  0.51757000  1.0
  N  N404  1  0.27083000  0.41537000  0.60717000  1.0
  N  N405  1  0.55560000  0.72470000  0.13080000  1.0
  N  N406  1  0.66750000  0.84290000  0.14910000  1.0
  N  N407  1  0.74870000  0.81120000  0.05950000  1.0
  N  N408  1  0.22227000  0.05803000  0.46413000  1.0
  N  N409  1  0.33417000  0.17623000  0.48243000  1.0
  N  N410  1  0.41537000  0.14453000  0.39283000  1.0
  N  N411  1  0.88893000  0.39137000  0.79747000  1.0
  N  N412  1  0.00083000  0.50957000  0.81577000  1.0
  N  N413  1  0.08203000  0.47787000  0.72617000  1.0
  N  N414  1  0.27530000  0.83090000  0.13080000  1.0
  N  N415  1  0.15710000  0.82460000  0.14910000  1.0
  N  N416  1  0.18880000  0.93750000  0.05950000  1.0
  N  N417  1  0.94197000  0.16423000  0.46413000  1.0
  N  N418  1  0.82377000  0.15793000  0.48243000  1.0
  N  N419  1  0.85547000  0.27083000  0.39283000  1.0
  N  N420  1  0.60863000  0.49757000  0.79747000  1.0
  N  N421  1  0.49043000  0.49127000  0.81577000  1.0
  N  N422  1  0.52213000  0.60417000  0.72617000  1.0
  N  N423  1  0.16910000  0.44440000  0.13080000  1.0
  N  N424  1  0.17540000  0.33250000  0.14910000  1.0
  N  N425  1  0.06250000  0.25130000  0.05950000  1.0
  N  N426  1  0.83577000  0.77773000  0.46413000  1.0
  N  N427  1  0.84207000  0.66583000  0.48243000  1.0
  N  N428  1  0.72917000  0.58463000  0.39283000  1.0
  N  N429  1  0.50243000  0.11107000  0.79747000  1.0
  N  N430  1  0.50873000  0.99917000  0.81577000  1.0
  N  N431  1  0.39583000  0.91797000  0.72617000  1.0
  O  O432  1  0.36699000  0.21028000  0.03710000  1.0
  O  O433  1  0.42178000  0.17516000  0.15640000  1.0
  O  O434  1  0.39110000  0.25907000  0.20610000  1.0
  O  O435  1  0.48401000  0.28900000  0.09020000  1.0
  O  O436  1  0.37497000  0.04450000  0.21220000  1.0
  O  O437  1  0.36726000  0.95901000  0.32610000  1.0
  O  O438  1  0.27166000  0.93510000  0.21840000  1.0
  O  O439  1  0.30031000  0.01093000  0.36090000  1.0
  O  O440  1  0.03366000  0.54361000  0.37043000  1.0
  O  O441  1  0.08845000  0.50849000  0.48973000  1.0
  O  O442  1  0.05777000  0.59240000  0.53943000  1.0
  O  O443  1  0.15068000  0.62233000  0.42353000  1.0
  O  O444  1  0.04164000  0.37783000  0.54553000  1.0
  O  O445  1  0.03393000  0.29234000  0.65943000  1.0
  O  O446  1  0.93833000  0.26843000  0.55173000  1.0
  O  O447  1  0.96698000  0.34426000  0.69423000  1.0
  O  O448  1  0.70032000  0.87695000  0.70377000  1.0
  O  O449  1  0.75511000  0.84183000  0.82307000  1.0
  O  O450  1  0.72443000  0.92574000  0.87277000  1.0
  O  O451  1  0.81734000  0.95567000  0.75687000  1.0
  O  O452  1  0.70830000  0.71117000  0.87887000  1.0
  O  O453  1  0.70059000  0.62568000  0.99277000  1.0
  O  O454  1  0.60499000  0.60177000  0.88507000  1.0
  O  O455  1  0.63364000  0.67760000  0.02757000  1.0
  O  O456  1  0.78972000  0.15671000  0.03710000  1.0
  O  O457  1  0.82484000  0.24662000  0.15640000  1.0
  O  O458  1  0.74093000  0.13203000  0.20610000  1.0
  O  O459  1  0.71100000  0.19501000  0.09020000  1.0
  O  O460  1  0.95550000  0.33047000  0.21220000  1.0
  O  O461  1  0.04099000  0.40825000  0.32610000  1.0
  O  O462  1  0.06490000  0.33656000  0.21840000  1.0
  O  O463  1  0.98907000  0.28938000  0.36090000  1.0
  O  O464  1  0.45639000  0.49004000  0.37043000  1.0
  O  O465  1  0.49151000  0.57995000  0.48973000  1.0
  O  O466  1  0.40760000  0.46536000  0.53943000  1.0
  O  O467  1  0.37767000  0.52834000  0.42353000  1.0
  O  O468  1  0.62217000  0.66380000  0.54553000  1.0
  O  O469  1  0.70766000  0.74158000  0.65943000  1.0
  O  O470  1  0.73157000  0.66989000  0.55173000  1.0
  O  O471  1  0.65574000  0.62271000  0.69423000  1.0
  O  O472  1  0.12305000  0.82338000  0.70377000  1.0
  O  O473  1  0.15817000  0.91329000  0.82307000  1.0
  O  O474  1  0.07426000  0.79870000  0.87277000  1.0
  O  O475  1  0.04433000  0.86168000  0.75687000  1.0
  O  O476  1  0.28883000  0.99714000  0.87887000  1.0
  O  O477  1  0.37432000  0.07492000  0.99277000  1.0
  O  O478  1  0.39823000  0.00323000  0.88507000  1.0
  O  O479  1  0.32240000  0.95605000  0.02757000  1.0
  O  O480  1  0.84329000  0.63301000  0.03710000  1.0
  O  O481  1  0.75338000  0.57822000  0.15640000  1.0
  O  O482  1  0.86797000  0.60890000  0.20610000  1.0
  O  O483  1  0.80499000  0.51599000  0.09020000  1.0
  O  O484  1  0.66953000  0.62503000  0.21220000  1.0
  O  O485  1  0.59175000  0.63274000  0.32610000  1.0
  O  O486  1  0.66344000  0.72834000  0.21840000  1.0
  O  O487  1  0.71062000  0.69969000  0.36090000  1.0
  O  O488  1  0.50996000  0.96634000  0.37043000  1.0
  O  O489  1  0.42005000  0.91155000  0.48973000  1.0
  O  O490  1  0.53464000  0.94223000  0.53943000  1.0
  O  O491  1  0.47166000  0.84932000  0.42353000  1.0
  O  O492  1  0.33620000  0.95836000  0.54553000  1.0
  O  O493  1  0.25842000  0.96607000  0.65943000  1.0
  O  O494  1  0.33011000  0.06167000  0.55173000  1.0
  O  O495  1  0.37729000  0.03302000  0.69423000  1.0
  O  O496  1  0.17662000  0.29968000  0.70377000  1.0
  O  O497  1  0.08671000  0.24489000  0.82307000  1.0
  O  O498  1  0.20130000  0.27557000  0.87277000  1.0
  O  O499  1  0.13832000  0.18266000  0.75687000  1.0
  O  O500  1  0.00286000  0.29170000  0.87887000  1.0
  O  O501  1  0.92508000  0.29941000  0.99277000  1.0
  O  O502  1  0.99677000  0.39501000  0.88507000  1.0
  O  O503  1  0.04395000  0.36636000  0.02757000  1.0
  O  O504  1  0.63301000  0.78972000  0.96290000  1.0
  O  O505  1  0.57822000  0.82484000  0.84360000  1.0
  O  O506  1  0.60890000  0.74093000  0.79390000  1.0
  O  O507  1  0.51599000  0.71100000  0.90980000  1.0
  O  O508  1  0.62503000  0.95550000  0.78780000  1.0
  O  O509  1  0.63274000  0.04099000  0.67390000  1.0
  O  O510  1  0.72834000  0.06490000  0.78160000  1.0
  O  O511  1  0.69969000  0.98907000  0.63910000  1.0
  O  O512  1  0.29968000  0.12305000  0.29623000  1.0
  O  O513  1  0.24489000  0.15817000  0.17693000  1.0
  O  O514  1  0.27557000  0.07426000  0.12723000  1.0
  O  O515  1  0.18266000  0.04433000  0.24313000  1.0
  O  O516  1  0.29170000  0.28883000  0.12113000  1.0
  O  O517  1  0.29941000  0.37432000  0.00723000  1.0
  O  O518  1  0.39501000  0.39823000  0.11493000  1.0
  O  O519  1  0.36636000  0.32240000  0.97243000  1.0
  O  O520  1  0.96634000  0.45639000  0.62957000  1.0
  O  O521  1  0.91155000  0.49151000  0.51027000  1.0
  O  O522  1  0.94223000  0.40760000  0.46057000  1.0
  O  O523  1  0.84932000  0.37767000  0.57647000  1.0
  O  O524  1  0.95836000  0.62217000  0.45447000  1.0
  O  O525  1  0.96607000  0.70766000  0.34057000  1.0
  O  O526  1  0.06167000  0.73157000  0.44827000  1.0
  O  O527  1  0.03302000  0.65574000  0.30577000  1.0
  O  O528  1  0.21028000  0.84329000  0.96290000  1.0
  O  O529  1  0.17516000  0.75338000  0.84360000  1.0
  O  O530  1  0.25907000  0.86797000  0.79390000  1.0
  O  O531  1  0.28900000  0.80499000  0.90980000  1.0
  O  O532  1  0.04450000  0.66953000  0.78780000  1.0
  O  O533  1  0.95901000  0.59175000  0.67390000  1.0
  O  O534  1  0.93510000  0.66344000  0.78160000  1.0
  O  O535  1  0.01093000  0.71062000  0.63910000  1.0
  O  O536  1  0.87695000  0.17662000  0.29623000  1.0
  O  O537  1  0.84183000  0.08671000  0.17693000  1.0
  O  O538  1  0.92574000  0.20130000  0.12723000  1.0
  O  O539  1  0.95567000  0.13832000  0.24313000  1.0
  O  O540  1  0.71117000  0.00286000  0.12113000  1.0
  O  O541  1  0.62568000  0.92508000  0.00723000  1.0
  O  O542  1  0.60177000  0.99677000  0.11493000  1.0
  O  O543  1  0.67760000  0.04395000  0.97243000  1.0
  O  O544  1  0.54361000  0.50996000  0.62957000  1.0
  O  O545  1  0.50849000  0.42005000  0.51027000  1.0
  O  O546  1  0.59240000  0.53464000  0.46057000  1.0
  O  O547  1  0.62233000  0.47166000  0.57647000  1.0
  O  O548  1  0.37783000  0.33620000  0.45447000  1.0
  O  O549  1  0.29234000  0.25842000  0.34057000  1.0
  O  O550  1  0.26843000  0.33011000  0.44827000  1.0
  O  O551  1  0.34426000  0.37729000  0.30577000  1.0
  O  O552  1  0.15671000  0.36699000  0.96290000  1.0
  O  O553  1  0.24662000  0.42178000  0.84360000  1.0
  O  O554  1  0.13203000  0.39110000  0.79390000  1.0
  O  O555  1  0.19501000  0.48401000  0.90980000  1.0
  O  O556  1  0.33047000  0.37497000  0.78780000  1.0
  O  O557  1  0.40825000  0.36726000  0.67390000  1.0
  O  O558  1  0.33656000  0.27166000  0.78160000  1.0
  O  O559  1  0.28938000  0.30031000  0.63910000  1.0
  O  O560  1  0.82338000  0.70032000  0.29623000  1.0
  O  O561  1  0.91329000  0.75511000  0.17693000  1.0
  O  O562  1  0.79870000  0.72443000  0.12723000  1.0
  O  O563  1  0.86168000  0.81734000  0.24313000  1.0
  O  O564  1  0.99714000  0.70830000  0.12113000  1.0
  O  O565  1  0.07492000  0.70059000  0.00723000  1.0
  O  O566  1  0.00323000  0.60499000  0.11493000  1.0
  O  O567  1  0.95605000  0.63364000  0.97243000  1.0
  O  O568  1  0.49004000  0.03366000  0.62957000  1.0
  O  O569  1  0.57995000  0.08845000  0.51027000  1.0
  O  O570  1  0.46536000  0.05777000  0.46057000  1.0
  O  O571  1  0.52834000  0.15068000  0.57647000  1.0
  O  O572  1  0.66380000  0.04164000  0.45447000  1.0
  O  O573  1  0.74158000  0.03393000  0.34057000  1.0
  O  O574  1  0.66989000  0.93833000  0.44827000  1.0
  O  O575  1  0.62271000  0.96698000  0.30577000  1.0
