# generated using pymatgen
data_V8ZnH16C20(N2O7)2
_symmetry_space_group_name_H-M   'P 1'
_cell_length_a   17.12400000
_cell_length_b   17.12400000
_cell_length_c   14.72400000
_cell_angle_alpha   90.00000000
_cell_angle_beta   90.00000000
_cell_angle_gamma   90.00000000
_symmetry_Int_Tables_number   1
_chemical_formula_structural   V8ZnH16C20(N2O7)2
_chemical_formula_sum   'V32 Zn4 H64 C80 N16 O56'
_cell_volume   4317.53878022
_cell_formula_units_Z   4
loop_
 _symmetry_equiv_pos_site_id
 _symmetry_equiv_pos_as_xyz
  1  'x, y, z'
loop_
 _atom_site_type_symbol
 _atom_site_label
 _atom_site_symmetry_multiplicity
 _atom_site_fract_x
 _atom_site_fract_y
 _atom_site_fract_z
 _atom_site_occupancy
  V  V0  1  0.06438000  0.07189000  0.77040000  1.0
  V  V1  1  0.96989000  0.81246000  0.91410000  1.0
  V  V2  1  0.18314000  0.05149000  0.91155000  1.0
  V  V3  1  0.12228000  0.89045000  0.87366000  1.0
  V  V4  1  0.93562000  0.92811000  0.77040000  1.0
  V  V5  1  0.03011000  0.18754000  0.91410000  1.0
  V  V6  1  0.81686000  0.94851000  0.91155000  1.0
  V  V7  1  0.87772000  0.10955000  0.87366000  1.0
  V  V8  1  0.07189000  0.93562000  0.22960000  1.0
  V  V9  1  0.81246000  0.03011000  0.08590000  1.0
  V  V10  1  0.05149000  0.81686000  0.08845000  1.0
  V  V11  1  0.89045000  0.87772000  0.12634000  1.0
  V  V12  1  0.92811000  0.06438000  0.22960000  1.0
  V  V13  1  0.18754000  0.96989000  0.08590000  1.0
  V  V14  1  0.94851000  0.18314000  0.08845000  1.0
  V  V15  1  0.10955000  0.12228000  0.12634000  1.0
  V  V16  1  0.56438000  0.42811000  0.27040000  1.0
  V  V17  1  0.46989000  0.68754000  0.41410000  1.0
  V  V18  1  0.68314000  0.44851000  0.41155000  1.0
  V  V19  1  0.62228000  0.60955000  0.37366000  1.0
  V  V20  1  0.43562000  0.57189000  0.27040000  1.0
  V  V21  1  0.53011000  0.31246000  0.41410000  1.0
  V  V22  1  0.31686000  0.55149000  0.41155000  1.0
  V  V23  1  0.37772000  0.39045000  0.37366000  1.0
  V  V24  1  0.57189000  0.56438000  0.72960000  1.0
  V  V25  1  0.31246000  0.46989000  0.58590000  1.0
  V  V26  1  0.55149000  0.68314000  0.58845000  1.0
  V  V27  1  0.39045000  0.62228000  0.62634000  1.0
  V  V28  1  0.42811000  0.43562000  0.72960000  1.0
  V  V29  1  0.68754000  0.53011000  0.58590000  1.0
  V  V30  1  0.44851000  0.31686000  0.58845000  1.0
  V  V31  1  0.60955000  0.37772000  0.62634000  1.0
  Zn  Zn32  1  0.25571000  0.75571000  0.75000000  1.0
  Zn  Zn33  1  0.74429000  0.24429000  0.75000000  1.0
  Zn  Zn34  1  0.75571000  0.74429000  0.25000000  1.0
  Zn  Zn35  1  0.24429000  0.25571000  0.25000000  1.0
  H  H36  1  0.17890000  0.72260000  0.94160000  1.0
  H  H37  1  0.25720000  0.57850000  0.75790000  1.0
  H  H38  1  0.18320000  0.28780000  0.05300000  1.0
  H  H39  1  0.23750000  0.43470000  0.24330000  1.0
  H  H40  1  0.23300000  0.53750000  0.14390000  1.0
  H  H41  1  0.24730000  0.47500000  0.85580000  1.0
  H  H42  1  0.18170000  0.38490000  0.94620000  1.0
  H  H43  1  0.17110000  0.62440000  0.04600000  1.0
  H  H44  1  0.82110000  0.27740000  0.94160000  1.0
  H  H45  1  0.74280000  0.42150000  0.75790000  1.0
  H  H46  1  0.81680000  0.71220000  0.05300000  1.0
  H  H47  1  0.76250000  0.56530000  0.24330000  1.0
  H  H48  1  0.76700000  0.46250000  0.14390000  1.0
  H  H49  1  0.75270000  0.52500000  0.85580000  1.0
  H  H50  1  0.81830000  0.61510000  0.94620000  1.0
  H  H51  1  0.82890000  0.37560000  0.04600000  1.0
  H  H52  1  0.72260000  0.82110000  0.05840000  1.0
  H  H53  1  0.57850000  0.74280000  0.24210000  1.0
  H  H54  1  0.28780000  0.81680000  0.94700000  1.0
  H  H55  1  0.43470000  0.76250000  0.75670000  1.0
  H  H56  1  0.53750000  0.76700000  0.85610000  1.0
  H  H57  1  0.47500000  0.75270000  0.14420000  1.0
  H  H58  1  0.38490000  0.81830000  0.05380000  1.0
  H  H59  1  0.62440000  0.82890000  0.95400000  1.0
  H  H60  1  0.27740000  0.17890000  0.05840000  1.0
  H  H61  1  0.42150000  0.25720000  0.24210000  1.0
  H  H62  1  0.71220000  0.18320000  0.94700000  1.0
  H  H63  1  0.56530000  0.23750000  0.75670000  1.0
  H  H64  1  0.46250000  0.23300000  0.85610000  1.0
  H  H65  1  0.52500000  0.24730000  0.14420000  1.0
  H  H66  1  0.61510000  0.18170000  0.05380000  1.0
  H  H67  1  0.37560000  0.17110000  0.95400000  1.0
  H  H68  1  0.67890000  0.77740000  0.44160000  1.0
  H  H69  1  0.75720000  0.92150000  0.25790000  1.0
  H  H70  1  0.68320000  0.21220000  0.55300000  1.0
  H  H71  1  0.73750000  0.06530000  0.74330000  1.0
  H  H72  1  0.73300000  0.96250000  0.64390000  1.0
  H  H73  1  0.74730000  0.02500000  0.35580000  1.0
  H  H74  1  0.68170000  0.11510000  0.44620000  1.0
  H  H75  1  0.67110000  0.87560000  0.54600000  1.0
  H  H76  1  0.32110000  0.22260000  0.44160000  1.0
  H  H77  1  0.24280000  0.07850000  0.25790000  1.0
  H  H78  1  0.31680000  0.78780000  0.55300000  1.0
  H  H79  1  0.26250000  0.93470000  0.74330000  1.0
  H  H80  1  0.26700000  0.03750000  0.64390000  1.0
  H  H81  1  0.25270000  0.97500000  0.35580000  1.0
  H  H82  1  0.31830000  0.88490000  0.44620000  1.0
  H  H83  1  0.32890000  0.12440000  0.54600000  1.0
  H  H84  1  0.22260000  0.67890000  0.55840000  1.0
  H  H85  1  0.07850000  0.75720000  0.74210000  1.0
  H  H86  1  0.78780000  0.68320000  0.44700000  1.0
  H  H87  1  0.93470000  0.73750000  0.25670000  1.0
  H  H88  1  0.03750000  0.73300000  0.35610000  1.0
  H  H89  1  0.97500000  0.74730000  0.64420000  1.0
  H  H90  1  0.88490000  0.68170000  0.55380000  1.0
  H  H91  1  0.12440000  0.67110000  0.45400000  1.0
  H  H92  1  0.77740000  0.32110000  0.55840000  1.0
  H  H93  1  0.92150000  0.24280000  0.74210000  1.0
  H  H94  1  0.21220000  0.31680000  0.44700000  1.0
  H  H95  1  0.06530000  0.26250000  0.25670000  1.0
  H  H96  1  0.96250000  0.26700000  0.35610000  1.0
  H  H97  1  0.02500000  0.25270000  0.64420000  1.0
  H  H98  1  0.11510000  0.31830000  0.55380000  1.0
  H  H99  1  0.87560000  0.32890000  0.45400000  1.0
  C  C100  1  0.19470000  0.67260000  0.92500000  1.0
  C  C101  1  0.24020000  0.58770000  0.81700000  1.0
  C  C102  1  0.19500000  0.33850000  0.07100000  1.0
  C  C103  1  0.22610000  0.42470000  0.18260000  1.0
  C  C104  1  0.22410000  0.48690000  0.12330000  1.0
  C  C105  1  0.23470000  0.52500000  0.87540000  1.0
  C  C106  1  0.19310000  0.39670000  0.00650000  1.0
  C  C107  1  0.20830000  0.47280000  0.03230000  1.0
  C  C108  1  0.20990000  0.53790000  0.96460000  1.0
  C  C109  1  0.18900000  0.61360000  0.98770000  1.0
  C  C110  1  0.80530000  0.32740000  0.92500000  1.0
  C  C111  1  0.75980000  0.41230000  0.81700000  1.0
  C  C112  1  0.80500000  0.66150000  0.07100000  1.0
  C  C113  1  0.77390000  0.57530000  0.18260000  1.0
  C  C114  1  0.77590000  0.51310000  0.12330000  1.0
  C  C115  1  0.76530000  0.47500000  0.87540000  1.0
  C  C116  1  0.80690000  0.60330000  0.00650000  1.0
  C  C117  1  0.79170000  0.52720000  0.03230000  1.0
  C  C118  1  0.79010000  0.46210000  0.96460000  1.0
  C  C119  1  0.81100000  0.38640000  0.98770000  1.0
  C  C120  1  0.67260000  0.80530000  0.07500000  1.0
  C  C121  1  0.58770000  0.75980000  0.18300000  1.0
  C  C122  1  0.33850000  0.80500000  0.92900000  1.0
  C  C123  1  0.42470000  0.77390000  0.81740000  1.0
  C  C124  1  0.48690000  0.77590000  0.87670000  1.0
  C  C125  1  0.52500000  0.76530000  0.12460000  1.0
  C  C126  1  0.39670000  0.80690000  0.99350000  1.0
  C  C127  1  0.47280000  0.79170000  0.96770000  1.0
  C  C128  1  0.53790000  0.79010000  0.03540000  1.0
  C  C129  1  0.61360000  0.81100000  0.01230000  1.0
  C  C130  1  0.32740000  0.19470000  0.07500000  1.0
  C  C131  1  0.41230000  0.24020000  0.18300000  1.0
  C  C132  1  0.66150000  0.19500000  0.92900000  1.0
  C  C133  1  0.57530000  0.22610000  0.81740000  1.0
  C  C134  1  0.51310000  0.22410000  0.87670000  1.0
  C  C135  1  0.47500000  0.23470000  0.12460000  1.0
  C  C136  1  0.60330000  0.19310000  0.99350000  1.0
  C  C137  1  0.52720000  0.20830000  0.96770000  1.0
  C  C138  1  0.46210000  0.20990000  0.03540000  1.0
  C  C139  1  0.38640000  0.18900000  0.01230000  1.0
  C  C140  1  0.69470000  0.82740000  0.42500000  1.0
  C  C141  1  0.74020000  0.91230000  0.31700000  1.0
  C  C142  1  0.69500000  0.16150000  0.57100000  1.0
  C  C143  1  0.72610000  0.07530000  0.68260000  1.0
  C  C144  1  0.72410000  0.01310000  0.62330000  1.0
  C  C145  1  0.73470000  0.97500000  0.37540000  1.0
  C  C146  1  0.69310000  0.10330000  0.50650000  1.0
  C  C147  1  0.70830000  0.02720000  0.53230000  1.0
  C  C148  1  0.70990000  0.96210000  0.46460000  1.0
  C  C149  1  0.68900000  0.88640000  0.48770000  1.0
  C  C150  1  0.30530000  0.17260000  0.42500000  1.0
  C  C151  1  0.25980000  0.08770000  0.31700000  1.0
  C  C152  1  0.30500000  0.83850000  0.57100000  1.0
  C  C153  1  0.27390000  0.92470000  0.68260000  1.0
  C  C154  1  0.27590000  0.98690000  0.62330000  1.0
  C  C155  1  0.26530000  0.02500000  0.37540000  1.0
  C  C156  1  0.30690000  0.89670000  0.50650000  1.0
  C  C157  1  0.29170000  0.97280000  0.53230000  1.0
  C  C158  1  0.29010000  0.03790000  0.46460000  1.0
  C  C159  1  0.31100000  0.11360000  0.48770000  1.0
  C  C160  1  0.17260000  0.69470000  0.57500000  1.0
  C  C161  1  0.08770000  0.74020000  0.68300000  1.0
  C  C162  1  0.83850000  0.69500000  0.42900000  1.0
  C  C163  1  0.92470000  0.72610000  0.31740000  1.0
  C  C164  1  0.98690000  0.72410000  0.37670000  1.0
  C  C165  1  0.02500000  0.73470000  0.62460000  1.0
  C  C166  1  0.89670000  0.69310000  0.49350000  1.0
  C  C167  1  0.97280000  0.70830000  0.46770000  1.0
  C  C168  1  0.03790000  0.70990000  0.53540000  1.0
  C  C169  1  0.11360000  0.68900000  0.51230000  1.0
  C  C170  1  0.82740000  0.30530000  0.57500000  1.0
  C  C171  1  0.91230000  0.25980000  0.68300000  1.0
  C  C172  1  0.16150000  0.30500000  0.42900000  1.0
  C  C173  1  0.07530000  0.27390000  0.31740000  1.0
  C  C174  1  0.01310000  0.27590000  0.37670000  1.0
  C  C175  1  0.97500000  0.26530000  0.62460000  1.0
  C  C176  1  0.10330000  0.30690000  0.49350000  1.0
  C  C177  1  0.02720000  0.29170000  0.46770000  1.0
  C  C178  1  0.96210000  0.29010000  0.53540000  1.0
  C  C179  1  0.88640000  0.31100000  0.51230000  1.0
  N  N180  1  0.22220000  0.66090000  0.84080000  1.0
  N  N181  1  0.21270000  0.35090000  0.15770000  1.0
  N  N182  1  0.77780000  0.33910000  0.84080000  1.0
  N  N183  1  0.78730000  0.64910000  0.15770000  1.0
  N  N184  1  0.66090000  0.77780000  0.15920000  1.0
  N  N185  1  0.35090000  0.78730000  0.84230000  1.0
  N  N186  1  0.33910000  0.22220000  0.15920000  1.0
  N  N187  1  0.64910000  0.21270000  0.84230000  1.0
  N  N188  1  0.72220000  0.83910000  0.34080000  1.0
  N  N189  1  0.71270000  0.14910000  0.65770000  1.0
  N  N190  1  0.27780000  0.16090000  0.34080000  1.0
  N  N191  1  0.28730000  0.85090000  0.65770000  1.0
  N  N192  1  0.16090000  0.72220000  0.65920000  1.0
  N  N193  1  0.85090000  0.71270000  0.34230000  1.0
  N  N194  1  0.83910000  0.27780000  0.65920000  1.0
  N  N195  1  0.14910000  0.28730000  0.34230000  1.0
  O  O196  1  0.11910000  0.13520000  0.87840000  1.0
  O  O197  1  0.18211000  0.83371000  0.81860000  1.0
  O  O198  1  0.12810000  0.99370000  0.82050000  1.0
  O  O199  1  0.07550000  0.82345000  0.96360000  1.0
  O  O200  1  0.02030000  0.87300000  0.82040000  1.0
  O  O201  1  0.18630000  0.94460000  0.96190000  1.0
  O  O202  1  0.88090000  0.86480000  0.87840000  1.0
  O  O203  1  0.81789000  0.16629000  0.81860000  1.0
  O  O204  1  0.87190000  0.00630000  0.82050000  1.0
  O  O205  1  0.92450000  0.17655000  0.96360000  1.0
  O  O206  1  0.97970000  0.12700000  0.82040000  1.0
  O  O207  1  0.81370000  0.05540000  0.96190000  1.0
  O  O208  1  0.13520000  0.88090000  0.12160000  1.0
  O  O209  1  0.83371000  0.81789000  0.18140000  1.0
  O  O210  1  0.99370000  0.87190000  0.17950000  1.0
  O  O211  1  0.82345000  0.92450000  0.03640000  1.0
  O  O212  1  0.87300000  0.97970000  0.17960000  1.0
  O  O213  1  0.94460000  0.81370000  0.03810000  1.0
  O  O214  1  0.86480000  0.11910000  0.12160000  1.0
  O  O215  1  0.16629000  0.18211000  0.18140000  1.0
  O  O216  1  0.00630000  0.12810000  0.17950000  1.0
  O  O217  1  0.17655000  0.07550000  0.03640000  1.0
  O  O218  1  0.12700000  0.02030000  0.17960000  1.0
  O  O219  1  0.05540000  0.18630000  0.03810000  1.0
  O  O220  1  0.61910000  0.36480000  0.37840000  1.0
  O  O221  1  0.68211000  0.66629000  0.31860000  1.0
  O  O222  1  0.62810000  0.50630000  0.32050000  1.0
  O  O223  1  0.57550000  0.67655000  0.46360000  1.0
  O  O224  1  0.52030000  0.62700000  0.32040000  1.0
  O  O225  1  0.68630000  0.55540000  0.46190000  1.0
  O  O226  1  0.38090000  0.63520000  0.37840000  1.0
  O  O227  1  0.31789000  0.33371000  0.31860000  1.0
  O  O228  1  0.37190000  0.49370000  0.32050000  1.0
  O  O229  1  0.42450000  0.32345000  0.46360000  1.0
  O  O230  1  0.47970000  0.37300000  0.32040000  1.0
  O  O231  1  0.31370000  0.44460000  0.46190000  1.0
  O  O232  1  0.63520000  0.61910000  0.62160000  1.0
  O  O233  1  0.33371000  0.68211000  0.68140000  1.0
  O  O234  1  0.49370000  0.62810000  0.67950000  1.0
  O  O235  1  0.32345000  0.57550000  0.53640000  1.0
  O  O236  1  0.37300000  0.52030000  0.67960000  1.0
  O  O237  1  0.44460000  0.68630000  0.53810000  1.0
  O  O238  1  0.36480000  0.38090000  0.62160000  1.0
  O  O239  1  0.66629000  0.31789000  0.68140000  1.0
  O  O240  1  0.50630000  0.37190000  0.67950000  1.0
  O  O241  1  0.67655000  0.42450000  0.53640000  1.0
  O  O242  1  0.62700000  0.47970000  0.67960000  1.0
  O  O243  1  0.55540000  0.31370000  0.53810000  1.0
  O  O244  1  0.00000000  0.00000000  0.71580000  1.0
  O  O245  1  0.00000000  0.00000000  0.79780000  1.0
  O  O246  1  0.00000000  0.00000000  0.28420000  1.0
  O  O247  1  0.00000000  0.00000000  0.20220000  1.0
  O  O248  1  0.50000000  0.50000000  0.21580000  1.0
  O  O249  1  0.50000000  0.50000000  0.29780000  1.0
  O  O250  1  0.50000000  0.50000000  0.78420000  1.0
  O  O251  1  0.50000000  0.50000000  0.70220000  1.0
