# generated using pymatgen
data_CdH10(C3O)6
_symmetry_space_group_name_H-M   'P 1'
_cell_length_a   11.07500000
_cell_length_b   15.43800000
_cell_length_c   19.18000000
_cell_angle_alpha   95.79600000
_cell_angle_beta   90.00000000
_cell_angle_gamma   90.00000000
_symmetry_Int_Tables_number   1
_chemical_formula_structural   CdH10(C3O)6
_chemical_formula_sum   'Cd6 H60 C108 O36'
_cell_volume   3262.55215327
_cell_formula_units_Z   6
loop_
 _symmetry_equiv_pos_site_id
 _symmetry_equiv_pos_as_xyz
  1  'x, y, z'
loop_
 _atom_site_type_symbol
 _atom_site_label
 _atom_site_symmetry_multiplicity
 _atom_site_fract_x
 _atom_site_fract_y
 _atom_site_fract_z
 _atom_site_occupancy
  Cd  Cd0  1  0.45496000  0.50000000  0.25000000  1.0
  Cd  Cd1  1  0.44237000  0.54395000  0.92226000  1.0
  Cd  Cd2  1  0.55763000  0.45605000  0.07774000  1.0
  Cd  Cd3  1  0.54504000  0.50000000  0.75000000  1.0
  Cd  Cd4  1  0.44237000  0.45605000  0.57774000  1.0
  Cd  Cd5  1  0.55763000  0.54395000  0.42226000  1.0
  H  H6  1  0.76610000  0.90670000  0.25990000  1.0
  H  H7  1  0.19250000  0.15760000  0.44710000  1.0
  H  H8  1  0.07920000  0.80750000  0.51180000  1.0
  H  H9  1  0.13760000  0.32750000  0.21170000  1.0
  H  H10  1  0.28690000  0.83420000  0.25390000  1.0
  H  H11  1  0.60420000  0.70730000  0.72340000  1.0
  H  H12  1  0.87120000  0.93240000  0.87650000  1.0
  H  H13  1  0.02100000  0.84200000  0.66800000  1.0
  H  H14  1  0.23390000  0.09330000  0.74010000  1.0
  H  H15  1  0.77260000  0.97850000  0.41500000  1.0
  H  H16  1  0.71870000  0.81540000  0.34440000  1.0
  H  H17  1  0.28700000  0.71090000  0.60960000  1.0
  H  H18  1  0.70410000  0.71310000  0.52260000  1.0
  H  H19  1  0.07920000  0.19250000  0.98820000  1.0
  H  H20  1  0.97900000  0.15800000  0.33200000  1.0
  H  H21  1  0.32910000  0.61890000  0.69420000  1.0
  H  H22  1  0.86240000  0.67250000  0.78830000  1.0
  H  H23  1  0.19250000  0.84240000  0.05290000  1.0
  H  H24  1  0.67090000  0.61890000  0.19420000  1.0
  H  H25  1  0.32910000  0.38110000  0.80580000  1.0
  H  H26  1  0.86240000  0.32750000  0.71170000  1.0
  H  H27  1  0.97900000  0.84200000  0.16800000  1.0
  H  H28  1  0.01510000  0.22610000  0.69010000  1.0
  H  H29  1  0.22740000  0.02150000  0.58500000  1.0
  H  H30  1  0.29590000  0.28690000  0.47740000  1.0
  H  H31  1  0.71300000  0.71090000  0.10960000  1.0
  H  H32  1  0.28700000  0.28910000  0.89040000  1.0
  H  H33  1  0.92080000  0.80750000  0.01180000  1.0
  H  H34  1  0.23390000  0.90670000  0.75990000  1.0
  H  H35  1  0.22740000  0.97850000  0.91500000  1.0
  H  H36  1  0.12880000  0.93240000  0.37650000  1.0
  H  H37  1  0.71310000  0.83420000  0.75390000  1.0
  H  H38  1  0.70410000  0.28690000  0.97740000  1.0
  H  H39  1  0.98490000  0.22610000  0.19010000  1.0
  H  H40  1  0.02100000  0.15800000  0.83200000  1.0
  H  H41  1  0.76650000  0.70610000  0.99000000  1.0
  H  H42  1  0.92080000  0.19250000  0.48820000  1.0
  H  H43  1  0.23350000  0.70610000  0.49000000  1.0
  H  H44  1  0.87120000  0.06760000  0.62350000  1.0
  H  H45  1  0.80750000  0.84240000  0.55290000  1.0
  H  H46  1  0.39580000  0.70730000  0.22340000  1.0
  H  H47  1  0.28130000  0.81540000  0.84440000  1.0
  H  H48  1  0.67090000  0.38110000  0.30580000  1.0
  H  H49  1  0.80750000  0.15760000  0.94710000  1.0
  H  H50  1  0.28130000  0.18460000  0.65560000  1.0
  H  H51  1  0.13760000  0.67250000  0.28830000  1.0
  H  H52  1  0.76650000  0.29390000  0.51000000  1.0
  H  H53  1  0.76610000  0.09330000  0.24010000  1.0
  H  H54  1  0.71300000  0.28910000  0.39040000  1.0
  H  H55  1  0.77260000  0.02150000  0.08500000  1.0
  H  H56  1  0.01510000  0.77390000  0.80990000  1.0
  H  H57  1  0.23350000  0.29390000  0.01000000  1.0
  H  H58  1  0.71870000  0.18460000  0.15560000  1.0
  H  H59  1  0.71310000  0.16580000  0.74610000  1.0
  H  H60  1  0.98490000  0.77390000  0.30990000  1.0
  H  H61  1  0.12880000  0.06760000  0.12350000  1.0
  H  H62  1  0.29590000  0.71310000  0.02260000  1.0
  H  H63  1  0.60420000  0.29270000  0.77660000  1.0
  H  H64  1  0.28690000  0.16580000  0.24610000  1.0
  H  H65  1  0.39580000  0.29270000  0.27660000  1.0
  C  C66  1  0.25920000  0.18160000  0.82270000  1.0
  C  C67  1  0.70420000  0.73770000  0.56890000  1.0
  C  C68  1  0.35480000  0.73390000  0.18900000  1.0
  C  C69  1  0.86140000  0.07520000  0.37250000  1.0
  C  C70  1  0.28990000  0.81020000  0.20750000  1.0
  C  C71  1  0.31370000  0.29260000  0.72220000  1.0
  C  C72  1  0.29580000  0.26230000  0.43110000  1.0
  C  C73  1  0.87390000  0.30030000  0.66666667  1.0
  C  C74  1  0.28990000  0.18980000  0.29250000  1.0
  C  C75  1  0.74470000  0.15090000  0.25330000  1.0
  C  C76  1  0.68770000  0.32280000  0.29240000  1.0
  C  C77  1  0.86140000  0.92480000  0.12750000  1.0
  C  C78  1  0.77010000  0.15020000  0.84430000  1.0
  C  C79  1  0.22990000  0.15020000  0.34430000  1.0
  C  C80  1  0.93840000  0.96850000  0.87590000  1.0
  C  C81  1  0.25530000  0.15090000  0.75330000  1.0
  C  C82  1  0.80020000  0.32100000  0.61280000  1.0
  C  C83  1  0.57210000  0.61500000  0.60260000  1.0
  C  C84  1  0.23260000  0.81480000  0.08710000  1.0
  C  C85  1  0.84700000  0.00400000  0.10120000  1.0
  C  C86  1  0.30600000  0.61710000  0.37110000  1.0
  C  C87  1  0.80020000  0.67900000  0.88720000  1.0
  C  C88  1  0.64520000  0.73390000  0.68900000  1.0
  C  C89  1  0.13860000  0.07520000  0.87250000  1.0
  C  C90  1  0.28630000  0.73180000  0.65680000  1.0
  C  C91  1  0.35220000  0.35150000  0.66940000  1.0
  C  C92  1  0.64100000  0.69700000  0.61970000  1.0
  C  C93  1  0.84700000  0.99600000  0.39880000  1.0
  C  C94  1  0.25530000  0.84910000  0.74670000  1.0
  C  C95  1  0.13860000  0.92480000  0.62750000  1.0
  C  C96  1  0.05070000  0.94330000  0.90010000  1.0
  C  C97  1  0.57210000  0.38500000  0.89740000  1.0
  C  C98  1  0.35900000  0.69700000  0.11970000  1.0
  C  C99  1  0.87390000  0.69970000  0.83330000  1.0
  C  C100  1  0.05070000  0.05670000  0.59990000  1.0
  C  C101  1  0.12610000  0.30030000  0.16670000  1.0
  C  C102  1  0.19980000  0.32100000  0.11280000  1.0
  C  C103  1  0.31370000  0.70740000  0.77780000  1.0
  C  C104  1  0.30600000  0.38290000  0.12890000  1.0
  C  C105  1  0.31230000  0.67720000  0.70760000  1.0
  C  C106  1  0.06160000  0.96850000  0.37590000  1.0
  C  C107  1  0.93170000  0.95130000  0.64870000  1.0
  C  C108  1  0.09170000  0.21920000  0.03330000  1.0
  C  C109  1  0.97970000  0.80120000  0.91290000  1.0
  C  C110  1  0.71370000  0.26820000  0.34320000  1.0
  C  C111  1  0.71370000  0.73180000  0.15680000  1.0
  C  C112  1  0.03540000  0.23950000  0.15400000  1.0
  C  C113  1  0.96460000  0.23950000  0.65400000  1.0
  C  C114  1  0.68630000  0.29260000  0.22220000  1.0
  C  C115  1  0.74470000  0.84910000  0.24670000  1.0
  C  C116  1  0.02030000  0.80120000  0.41290000  1.0
  C  C117  1  0.06830000  0.04870000  0.35130000  1.0
  C  C118  1  0.68770000  0.67720000  0.20760000  1.0
  C  C119  1  0.64520000  0.26610000  0.81100000  1.0
  C  C120  1  0.64100000  0.30300000  0.88030000  1.0
  C  C121  1  0.42790000  0.38500000  0.39740000  1.0
  C  C122  1  0.15300000  0.99600000  0.89880000  1.0
  C  C123  1  0.93170000  0.04870000  0.85130000  1.0
  C  C124  1  0.09170000  0.78080000  0.46670000  1.0
  C  C125  1  0.69400000  0.61710000  0.87110000  1.0
  C  C126  1  0.28310000  0.79420000  0.79720000  1.0
  C  C127  1  0.71690000  0.79420000  0.29720000  1.0
  C  C128  1  0.12610000  0.69970000  0.33333333  1.0
  C  C129  1  0.94930000  0.05670000  0.09990000  1.0
  C  C130  1  0.81660000  0.71960000  0.95370000  1.0
  C  C131  1  0.76740000  0.18520000  0.91290000  1.0
  C  C132  1  0.81660000  0.28040000  0.54630000  1.0
  C  C133  1  0.35900000  0.30300000  0.38030000  1.0
  C  C134  1  0.25920000  0.81840000  0.67730000  1.0
  C  C135  1  0.15300000  0.00400000  0.60120000  1.0
  C  C136  1  0.19980000  0.67900000  0.38720000  1.0
  C  C137  1  0.97130000  0.89610000  0.15120000  1.0
  C  C138  1  0.93840000  0.03150000  0.62410000  1.0
  C  C139  1  0.70420000  0.26230000  0.93110000  1.0
  C  C140  1  0.42790000  0.61500000  0.10260000  1.0
  C  C141  1  0.77010000  0.84980000  0.65570000  1.0
  C  C142  1  0.06160000  0.03150000  0.12410000  1.0
  C  C143  1  0.71690000  0.20580000  0.20280000  1.0
  C  C144  1  0.90830000  0.21920000  0.53330000  1.0
  C  C145  1  0.03540000  0.76050000  0.34600000  1.0
  C  C146  1  0.22990000  0.84980000  0.15570000  1.0
  C  C147  1  0.64780000  0.35150000  0.16940000  1.0
  C  C148  1  0.64780000  0.64850000  0.33060000  1.0
  C  C149  1  0.68630000  0.70740000  0.27780000  1.0
  C  C150  1  0.02870000  0.10390000  0.84880000  1.0
  C  C151  1  0.23260000  0.18520000  0.41290000  1.0
  C  C152  1  0.74080000  0.81840000  0.17730000  1.0
  C  C153  1  0.71010000  0.18980000  0.79250000  1.0
  C  C154  1  0.02030000  0.19880000  0.08710000  1.0
  C  C155  1  0.28630000  0.26820000  0.84320000  1.0
  C  C156  1  0.02870000  0.89610000  0.65120000  1.0
  C  C157  1  0.31230000  0.32280000  0.79240000  1.0
  C  C158  1  0.90830000  0.78080000  0.96670000  1.0
  C  C159  1  0.69400000  0.38290000  0.62890000  1.0
  C  C160  1  0.35480000  0.26610000  0.31100000  1.0
  C  C161  1  0.71010000  0.81020000  0.70750000  1.0
  C  C162  1  0.18340000  0.28040000  0.04630000  1.0
  C  C163  1  0.74080000  0.18160000  0.32270000  1.0
  C  C164  1  0.97130000  0.10390000  0.34880000  1.0
  C  C165  1  0.96460000  0.76050000  0.84600000  1.0
  C  C166  1  0.76740000  0.81480000  0.58710000  1.0
  C  C167  1  0.28310000  0.20580000  0.70280000  1.0
  C  C168  1  0.06830000  0.95130000  0.14870000  1.0
  C  C169  1  0.94930000  0.94330000  0.40010000  1.0
  C  C170  1  0.29580000  0.73770000  0.06890000  1.0
  C  C171  1  0.35220000  0.64850000  0.83060000  1.0
  C  C172  1  0.97970000  0.19880000  0.58710000  1.0
  C  C173  1  0.18340000  0.71960000  0.45370000  1.0
  O  O174  1  0.32660000  0.59160000  0.30840000  1.0
  O  O175  1  0.67340000  0.59160000  0.80840000  1.0
  O  O176  1  0.61080000  0.57280000  0.30900000  1.0
  O  O177  1  0.46740000  0.42660000  0.34870000  1.0
  O  O178  1  0.53260000  0.57340000  0.65130000  1.0
  O  O179  1  0.76020000  0.87190000  0.12430000  1.0
  O  O180  1  0.46740000  0.57340000  0.15130000  1.0
  O  O181  1  0.38920000  0.57280000  0.80900000  1.0
  O  O182  1  0.93050000  0.86370000  0.42680000  1.0
  O  O183  1  0.63190000  0.40190000  0.57600000  1.0
  O  O184  1  0.18040000  0.06980000  0.32370000  1.0
  O  O185  1  0.44760000  0.41320000  0.46020000  1.0
  O  O186  1  0.34850000  0.67230000  0.89460000  1.0
  O  O187  1  0.55240000  0.58680000  0.53980000  1.0
  O  O188  1  0.93050000  0.13630000  0.07320000  1.0
  O  O189  1  0.44760000  0.58680000  0.03980000  1.0
  O  O190  1  0.36810000  0.40190000  0.07600000  1.0
  O  O191  1  0.55240000  0.41320000  0.96020000  1.0
  O  O192  1  0.32660000  0.40840000  0.19160000  1.0
  O  O193  1  0.76020000  0.12810000  0.37570000  1.0
  O  O194  1  0.34850000  0.32770000  0.60540000  1.0
  O  O195  1  0.06950000  0.13630000  0.57320000  1.0
  O  O196  1  0.65150000  0.32770000  0.10540000  1.0
  O  O197  1  0.23980000  0.87190000  0.62430000  1.0
  O  O198  1  0.18040000  0.93020000  0.17630000  1.0
  O  O199  1  0.23980000  0.12810000  0.87570000  1.0
  O  O200  1  0.38920000  0.42720000  0.69100000  1.0
  O  O201  1  0.61080000  0.42720000  0.19100000  1.0
  O  O202  1  0.81960000  0.06980000  0.82370000  1.0
  O  O203  1  0.63190000  0.59810000  0.92400000  1.0
  O  O204  1  0.53260000  0.42660000  0.84870000  1.0
  O  O205  1  0.67340000  0.40840000  0.69160000  1.0
  O  O206  1  0.36810000  0.59810000  0.42400000  1.0
  O  O207  1  0.65150000  0.67230000  0.39460000  1.0
  O  O208  1  0.81960000  0.93020000  0.67630000  1.0
  O  O209  1  0.06950000  0.86370000  0.92680000  1.0
