# generated using pymatgen
data_Zn4H20C40N2O17
_symmetry_space_group_name_H-M   'P 1'
_cell_length_a   10.34900000
_cell_length_b   26.08400000
_cell_length_c   32.28400000
_cell_angle_alpha   90.00000000
_cell_angle_beta   90.00000000
_cell_angle_gamma   90.00000000
_symmetry_Int_Tables_number   1
_chemical_formula_structural   Zn4H20C40N2O17
_chemical_formula_sum   'Zn16 H80 C160 N8 O68'
_cell_volume   8714.85001374
_cell_formula_units_Z   4
loop_
 _symmetry_equiv_pos_site_id
 _symmetry_equiv_pos_as_xyz
  1  'x, y, z'
loop_
 _atom_site_type_symbol
 _atom_site_label
 _atom_site_symmetry_multiplicity
 _atom_site_fract_x
 _atom_site_fract_y
 _atom_site_fract_z
 _atom_site_occupancy
  Zn  Zn0  1  0.50000000  0.84636000  0.12435000  1.0
  Zn  Zn1  1  0.50000000  0.15364000  0.87565000  1.0
  Zn  Zn2  1  0.49971000  0.78979000  0.03478000  1.0
  Zn  Zn3  1  0.00000000  0.34636000  0.37565000  1.0
  Zn  Zn4  1  0.00000000  0.65364000  0.62435000  1.0
  Zn  Zn5  1  0.84710000  0.75327000  0.61323000  1.0
  Zn  Zn6  1  0.99971000  0.28979000  0.46522000  1.0
  Zn  Zn7  1  0.84609000  0.24680000  0.38678000  1.0
  Zn  Zn8  1  0.34609000  0.74680000  0.11322000  1.0
  Zn  Zn9  1  0.65391000  0.25320000  0.88678000  1.0
  Zn  Zn10  1  0.34710000  0.25327000  0.88677000  1.0
  Zn  Zn11  1  0.15391000  0.75320000  0.61322000  1.0
  Zn  Zn12  1  0.15290000  0.24673000  0.38677000  1.0
  Zn  Zn13  1  0.00029000  0.71021000  0.53478000  1.0
  Zn  Zn14  1  0.65290000  0.74673000  0.11323000  1.0
  Zn  Zn15  1  0.50029000  0.21021000  0.96522000  1.0
  H  H16  1  0.67360000  0.40180000  0.82040000  1.0
  H  H17  1  0.04270000  0.69080000  0.75840000  1.0
  H  H18  1  0.30810000  0.42850000  0.30590000  1.0
  H  H19  1  0.56980000  0.25780000  0.61610000  1.0
  H  H20  1  0.79010000  0.88790000  0.65990000  1.0
  H  H21  1  0.50140000  0.76000000  0.55440000  1.0
  H  H22  1  0.32210000  0.11700000  0.08590000  1.0
  H  H23  1  0.92420000  0.98390000  0.23220000  1.0
  H  H24  1  0.70990000  0.61210000  0.15990000  1.0
  H  H25  1  0.18850000  0.48420000  0.62520000  1.0
  H  H26  1  0.31150000  0.01580000  0.12520000  1.0
  H  H27  1  0.86540000  0.03400000  0.27180000  1.0
  H  H28  1  0.69190000  0.57150000  0.69410000  1.0
  H  H29  1  0.49860000  0.24000000  0.44560000  1.0
  H  H30  1  0.80640000  0.25040000  0.05390000  1.0
  H  H31  1  0.30540000  0.25550000  0.55320000  1.0
  H  H32  1  0.74890000  0.54780000  0.20850000  1.0
  H  H33  1  0.95730000  0.30920000  0.24160000  1.0
  H  H34  1  0.06980000  0.75780000  0.88390000  1.0
  H  H35  1  0.46350000  0.79140000  0.32910000  1.0
  H  H36  1  0.00140000  0.26000000  0.94560000  1.0
  H  H37  1  0.32640000  0.59820000  0.17960000  1.0
  H  H38  1  0.45730000  0.80920000  0.25840000  1.0
  H  H39  1  0.67790000  0.88300000  0.91410000  1.0
  H  H40  1  0.93020000  0.24220000  0.11610000  1.0
  H  H41  1  0.54270000  0.19080000  0.74160000  1.0
  H  H42  1  0.30650000  0.57180000  0.69490000  1.0
  H  H43  1  0.81930000  0.81460000  0.73600000  1.0
  H  H44  1  0.81320000  0.83240000  0.80670000  1.0
  H  H45  1  0.19350000  0.92820000  0.19490000  1.0
  H  H46  1  0.11590000  0.53710000  0.58680000  1.0
  H  H47  1  0.24890000  0.04780000  0.29150000  1.0
  H  H48  1  0.53650000  0.20860000  0.67090000  1.0
  H  H49  1  0.00040000  0.82870000  0.12020000  1.0
  H  H50  1  0.68070000  0.68540000  0.23600000  1.0
  H  H51  1  0.88410000  0.46290000  0.41320000  1.0
  H  H52  1  0.17790000  0.38300000  0.58590000  1.0
  H  H53  1  0.80810000  0.92850000  0.19410000  1.0
  H  H54  1  0.80540000  0.75550000  0.94680000  1.0
  H  H55  1  0.69360000  0.24960000  0.55390000  1.0
  H  H56  1  0.49960000  0.67130000  0.62020000  1.0
  H  H57  1  0.31930000  0.31460000  0.76400000  1.0
  H  H58  1  0.29010000  0.38790000  0.84010000  1.0
  H  H59  1  0.99860000  0.74000000  0.05440000  1.0
  H  H60  1  0.38410000  0.96290000  0.08680000  1.0
  H  H61  1  0.10930000  0.38960000  0.53650000  1.0
  H  H62  1  0.36540000  0.53400000  0.22820000  1.0
  H  H63  1  0.43020000  0.74220000  0.38390000  1.0
  H  H64  1  0.82640000  0.09820000  0.32040000  1.0
  H  H65  1  0.99960000  0.17130000  0.87980000  1.0
  H  H66  1  0.17360000  0.90180000  0.67960000  1.0
  H  H67  1  0.96350000  0.29140000  0.17090000  1.0
  H  H68  1  0.31320000  0.33240000  0.69330000  1.0
  H  H69  1  0.25110000  0.45220000  0.79150000  1.0
  H  H70  1  0.80650000  0.07180000  0.80510000  1.0
  H  H71  1  0.07580000  0.01610000  0.76780000  1.0
  H  H72  1  0.39070000  0.11040000  0.03650000  1.0
  H  H73  1  0.57580000  0.51610000  0.73220000  1.0
  H  H74  1  0.89070000  0.61040000  0.46350000  1.0
  H  H75  1  0.63460000  0.46600000  0.77180000  1.0
  H  H76  1  0.13460000  0.96600000  0.72820000  1.0
  H  H77  1  0.81150000  0.51580000  0.37480000  1.0
  H  H78  1  0.42420000  0.48390000  0.26780000  1.0
  H  H79  1  0.75110000  0.95220000  0.70850000  1.0
  H  H80  1  0.19190000  0.07150000  0.80590000  1.0
  H  H81  1  0.18070000  0.18540000  0.26400000  1.0
  H  H82  1  0.19460000  0.24450000  0.05320000  1.0
  H  H83  1  0.61590000  0.03710000  0.91320000  1.0
  H  H84  1  0.68680000  0.66760000  0.30670000  1.0
  H  H85  1  0.68850000  0.98420000  0.87480000  1.0
  H  H86  1  0.60930000  0.88960000  0.96350000  1.0
  H  H87  1  0.69350000  0.42820000  0.30510000  1.0
  H  H88  1  0.18680000  0.16760000  0.19330000  1.0
  H  H89  1  0.50040000  0.32870000  0.37980000  1.0
  H  H90  1  0.69460000  0.74450000  0.44680000  1.0
  H  H91  1  0.20990000  0.11210000  0.34010000  1.0
  H  H92  1  0.82210000  0.61700000  0.41410000  1.0
  H  H93  1  0.19360000  0.74960000  0.94610000  1.0
  H  H94  1  0.03650000  0.70860000  0.82910000  1.0
  H  H95  1  0.30640000  0.75040000  0.44610000  1.0
  C  C96  1  0.48560000  0.38870000  0.83490000  1.0
  C  C97  1  0.91620000  0.77660000  0.86900000  1.0
  C  C98  1  0.49300000  0.34670000  0.86320000  1.0
  C  C99  1  0.42420000  0.27220000  0.67530000  1.0
  C  C100  1  0.88340000  0.74660000  0.00310000  1.0
  C  C101  1  0.50700000  0.65330000  0.13680000  1.0
  C  C102  1  0.88420000  0.08680000  0.81410000  1.0
  C  C103  1  0.56510000  0.45030000  0.78560000  1.0
  C  C104  1  0.49990000  0.24340000  0.47460000  1.0
  C  C105  1  0.88160000  0.86880000  0.16060000  1.0
  C  C106  1  0.84340000  0.58160000  0.41880000  1.0
  C  C107  1  0.38390000  0.25160000  0.53890000  1.0
  C  C108  1  0.83630000  0.94200000  0.70270000  1.0
  C  C109  1  0.55890000  0.76030000  0.19860000  1.0
  C  C110  1  0.49780000  0.04610000  0.98230000  1.0
  C  C111  1  0.11370000  0.50230000  0.57890000  1.0
  C  C112  1  0.05450000  0.45590000  0.52120000  1.0
  C  C113  1  0.88780000  0.57630000  0.45510000  1.0
  C  C114  1  0.08840000  0.91200000  0.68540000  1.0
  C  C115  1  0.43490000  0.54970000  0.21440000  1.0
  C  C116  1  0.26310000  0.34940000  0.35770000  1.0
  C  C117  1  0.55450000  0.95590000  0.97880000  1.0
  C  C118  1  0.56840000  0.74900000  0.24040000  1.0
  C  C119  1  0.38420000  0.58680000  0.68590000  1.0
  C  C120  1  0.23560000  0.74770000  0.02880000  1.0
  C  C121  1  0.00060000  0.85140000  0.14280000  1.0
  C  C122  1  0.23690000  0.15060000  0.85770000  1.0
  C  C123  1  0.50010000  0.75660000  0.52540000  1.0
  C  C124  1  0.00220000  0.45390000  0.48230000  1.0
  C  C125  1  0.00160000  0.06670000  0.80220000  1.0
  C  C126  1  0.43160000  0.25100000  0.75960000  1.0
  C  C127  1  0.91160000  0.08800000  0.31460000  1.0
  C  C128  1  0.45700000  0.99490000  0.04030000  1.0
  C  C129  1  0.61370000  0.00230000  0.92110000  1.0
  C  C130  1  0.99970000  0.40080000  0.46000000  1.0
  C  C131  1  0.36310000  0.29320000  0.74520000  1.0
  C  C132  1  0.41160000  0.58800000  0.18540000  1.0
  C  C133  1  0.11840000  0.13120000  0.83940000  1.0
  C  C134  1  0.50160000  0.56670000  0.69780000  1.0
  C  C135  1  0.50360000  0.78060000  0.26810000  1.0
  C  C136  1  0.06840000  0.24900000  0.25960000  1.0
  C  C137  1  0.49270000  0.23000000  0.68970000  1.0
  C  C138  1  0.61590000  0.24870000  0.53880000  1.0
  C  C139  1  0.26440000  0.75230000  0.52880000  1.0
  C  C140  1  0.11660000  0.25340000  0.99690000  1.0
  C  C141  1  0.76360000  0.15000000  0.85920000  1.0
  C  C142  1  0.33630000  0.44200000  0.79730000  1.0
  C  C143  1  0.35950000  0.30380000  0.70310000  1.0
  C  C144  1  0.00030000  0.59920000  0.54000000  1.0
  C  C145  1  0.93490000  0.04970000  0.28560000  1.0
  C  C146  1  0.34610000  0.03120000  0.10060000  1.0
  C  C147  1  0.99640000  0.71940000  0.76810000  1.0
  C  C148  1  0.35960000  0.40370000  0.82630000  1.0
  C  C149  1  0.25900000  0.24720000  0.47220000  1.0
  C  C150  1  0.56090000  0.53470000  0.22300000  1.0
  C  C151  1  0.94550000  0.54410000  0.47880000  1.0
  C  C152  1  0.26360000  0.65000000  0.64080000  1.0
  C  C153  1  0.06510000  0.95030000  0.71440000  1.0
  C  C154  1  0.38340000  0.24660000  0.49690000  1.0
  C  C155  1  0.50030000  0.09920000  0.96000000  1.0
  C  C156  1  0.00010000  0.25660000  0.97460000  1.0
  C  C157  1  0.50220000  0.74910000  0.43970000  1.0
  C  C158  1  0.11220000  0.42370000  0.54490000  1.0
  C  C159  1  0.15390000  0.46880000  0.60060000  1.0
  C  C160  1  0.75900000  0.74720000  0.02780000  1.0
  C  C161  1  0.38580000  0.41300000  0.31430000  1.0
  C  C162  1  0.11610000  0.24840000  0.03890000  1.0
  C  C163  1  0.99990000  0.74340000  0.02540000  1.0
  C  C164  1  0.24100000  0.25280000  0.97220000  1.0
  C  C165  1  0.59140000  0.49410000  0.24950000  1.0
  C  C166  1  0.90860000  0.00590000  0.74950000  1.0
  C  C167  1  0.73640000  0.35000000  0.35920000  1.0
  C  C168  1  0.74100000  0.75280000  0.52780000  1.0
  C  C169  1  0.50060000  0.35140000  0.35720000  1.0
  C  C170  1  0.93910000  0.96530000  0.72300000  1.0
  C  C171  1  0.61420000  0.58700000  0.68570000  1.0
  C  C172  1  0.61730000  0.36900000  0.34030000  1.0
  C  C173  1  0.76440000  0.25230000  0.97120000  1.0
  C  C174  1  0.07580000  0.22780000  0.17530000  1.0
  C  C175  1  0.12040000  0.74530000  0.00380000  1.0
  C  C176  1  0.13690000  0.20680000  0.24520000  1.0
  C  C177  1  0.86310000  0.79320000  0.75480000  1.0
  C  C178  1  0.09140000  0.99410000  0.25050000  1.0
  C  C179  1  0.37960000  0.75470000  0.50380000  1.0
  C  C180  1  0.11590000  0.74870000  0.96120000  1.0
  C  C181  1  0.92420000  0.77220000  0.82470000  1.0
  C  C182  1  0.88390000  0.75160000  0.96110000  1.0
  C  C183  1  0.51440000  0.61130000  0.16510000  1.0
  C  C184  1  0.62040000  0.24530000  0.49620000  1.0
  C  C185  1  0.43910000  0.46530000  0.77700000  1.0
  C  C186  1  0.11730000  0.86900000  0.15970000  1.0
  C  C187  1  0.38270000  0.63100000  0.65970000  1.0
  C  C188  1  0.64040000  0.59630000  0.17370000  1.0
  C  C189  1  0.49940000  0.64860000  0.64280000  1.0
  C  C190  1  0.23640000  0.85000000  0.14080000  1.0
  C  C191  1  0.34340000  0.08160000  0.08120000  1.0
  C  C192  1  0.57580000  0.72780000  0.32470000  1.0
  C  C193  1  0.99780000  0.54610000  0.51770000  1.0
  C  C194  1  0.85950000  0.80380000  0.79690000  1.0
  C  C195  1  0.14050000  0.19620000  0.20310000  1.0
  C  C196  1  0.99780000  0.75090000  0.93970000  1.0
  C  C197  1  0.61220000  0.92370000  0.95510000  1.0
  C  C198  1  0.00220000  0.24910000  0.06030000  1.0
  C  C199  1  0.84610000  0.53120000  0.39940000  1.0
  C  C200  1  0.61840000  0.63120000  0.66060000  1.0
  C  C201  1  0.44550000  0.04410000  0.02120000  1.0
  C  C202  1  0.93160000  0.75100000  0.74040000  1.0
  C  C203  1  0.00700000  0.15330000  0.36320000  1.0
  C  C204  1  0.40860000  0.50590000  0.75050000  1.0
  C  C205  1  0.08380000  0.22340000  0.13100000  1.0
  C  C206  1  0.11420000  0.08700000  0.81430000  1.0
  C  C207  1  0.05890000  0.26030000  0.30140000  1.0
  C  C208  1  0.38630000  0.99770000  0.07890000  1.0
  C  C209  1  0.88580000  0.91300000  0.18570000  1.0
  C  C210  1  0.58380000  0.72340000  0.36900000  1.0
  C  C211  1  0.76310000  0.84940000  0.14230000  1.0
  C  C212  1  0.06090000  0.03470000  0.27700000  1.0
  C  C213  1  0.50730000  0.77000000  0.31030000  1.0
  C  C214  1  0.88410000  0.25130000  0.03880000  1.0
  C  C215  1  0.73560000  0.24770000  0.47120000  1.0
  C  C216  1  0.49780000  0.25090000  0.56030000  1.0
  C  C217  1  0.04300000  0.50510000  0.54030000  1.0
  C  C218  1  0.38780000  0.07630000  0.04490000  1.0
  C  C219  1  0.15660000  0.41840000  0.58120000  1.0
  C  C220  1  0.98560000  0.88870000  0.66510000  1.0
  C  C221  1  0.99940000  0.14860000  0.85720000  1.0
  C  C222  1  0.49640000  0.21940000  0.73190000  1.0
  C  C223  1  0.88630000  0.49770000  0.42110000  1.0
  C  C224  1  0.49840000  0.43330000  0.30220000  1.0
  C  C225  1  0.94110000  0.73970000  0.69860000  1.0
  C  C226  1  0.64050000  0.69620000  0.29690000  1.0
  C  C227  1  0.38410000  0.75130000  0.46120000  1.0
  C  C228  1  0.61610000  0.74840000  0.46110000  1.0
  C  C229  1  0.63690000  0.70680000  0.25480000  1.0
  C  C230  1  0.87960000  0.25470000  0.99620000  1.0
  C  C231  1  0.00360000  0.28060000  0.23190000  1.0
  C  C232  1  0.66370000  0.55800000  0.20270000  1.0
  C  C233  1  0.65390000  0.96880000  0.89940000  1.0
  C  C234  1  0.61660000  0.75340000  0.50310000  1.0
  C  C235  1  0.95700000  0.49490000  0.45970000  1.0
  C  C236  1  0.01440000  0.11130000  0.33490000  1.0
  C  C237  1  0.11580000  0.91320000  0.18590000  1.0
  C  C238  1  0.54300000  0.00510000  0.95970000  1.0
  C  C239  1  0.00730000  0.27000000  0.18970000  1.0
  C  C240  1  0.99840000  0.93330000  0.19780000  1.0
  C  C241  1  0.99270000  0.73000000  0.81030000  1.0
  C  C242  1  0.14040000  0.09630000  0.32630000  1.0
  C  C243  1  0.61580000  0.41320000  0.31410000  1.0
  C  C244  1  0.73690000  0.65060000  0.64230000  1.0
  C  C245  1  0.41620000  0.27660000  0.63100000  1.0
  C  C246  1  0.65660000  0.91840000  0.91880000  1.0
  C  C247  1  0.58840000  0.41200000  0.81460000  1.0
  C  C248  1  0.44110000  0.23970000  0.80140000  1.0
  C  C249  1  0.50220000  0.95390000  0.01770000  1.0
  C  C250  1  0.85960000  0.90370000  0.67370000  1.0
  C  C251  1  0.99300000  0.84670000  0.63680000  1.0
  C  C252  1  0.49970000  0.90080000  0.04000000  1.0
  C  C253  1  0.88270000  0.13100000  0.84030000  1.0
  C  C254  1  0.16370000  0.05800000  0.29730000  1.0
  C  C255  1  0.38160000  0.36880000  0.33940000  1.0
  N  N256  1  0.99950000  0.24490000  0.10390000  1.0
  N  N257  1  0.00050000  0.75510000  0.89610000  1.0
  N  N258  1  0.50050000  0.25510000  0.60390000  1.0
  N  N259  1  0.49950000  0.74490000  0.39610000  1.0
  N  N260  1  0.99680000  0.02840000  0.77400000  1.0
  N  N261  1  0.50320000  0.47160000  0.27400000  1.0
  N  N262  1  0.49680000  0.52840000  0.72600000  1.0
  N  N263  1  0.00320000  0.97160000  0.22600000  1.0
  O  O264  1  0.23190000  0.19050000  0.87710000  1.0
  O  O265  1  0.15880000  0.73450000  0.50930000  1.0
  O  O266  1  0.00310000  0.39920000  0.42160000  1.0
  O  O267  1  0.20830000  0.97440000  0.25120000  1.0
  O  O268  1  0.25970000  0.77040000  0.56381000  1.0
  O  O269  1  0.26870000  0.69090000  0.62190000  1.0
  O  O270  1  0.26060000  0.22970000  0.43634000  1.0
  O  O271  1  0.82060000  0.80470000  0.88360000  1.0
  O  O272  1  0.70830000  0.47440000  0.24880000  1.0
  O  O273  1  0.40040000  0.32400000  0.87270000  1.0
  O  O274  1  0.65590000  0.76490000  0.00938000  1.0
  O  O275  1  0.99980000  0.36320000  0.48310000  1.0
  O  O276  1  0.24030000  0.72960000  0.06381000  1.0
  O  O277  1  0.76060000  0.72970000  0.06366000  1.0
  O  O278  1  0.99670000  0.29120000  0.31270000  1.0
  O  O279  1  0.73940000  0.77030000  0.56366000  1.0
  O  O280  1  0.99690000  0.60080000  0.57840000  1.0
  O  O281  1  0.00040000  0.28280000  0.40671000  1.0
  O  O282  1  0.34410000  0.23510000  0.99062000  1.0
  O  O283  1  0.49690000  0.10080000  0.92160000  1.0
  O  O284  1  0.99960000  0.71720000  0.59329000  1.0
  O  O285  1  0.50040000  0.78280000  0.09329000  1.0
  O  O286  1  0.84240000  0.37200000  0.35010000  1.0
  O  O287  1  0.15620000  0.37220000  0.35040000  1.0
  O  O288  1  0.84120000  0.26550000  0.49070000  1.0
  O  O289  1  0.34380000  0.12780000  0.85040000  1.0
  O  O290  1  0.34240000  0.87200000  0.14990000  1.0
  O  O291  1  0.84260000  0.76780000  0.67980000  1.0
  O  O292  1  0.10090000  0.82690000  0.62470000  1.0
  O  O293  1  0.39910000  0.67310000  0.12470000  1.0
  O  O294  1  0.76810000  0.80950000  0.12290000  1.0
  O  O295  1  0.50020000  0.13680000  0.98310000  1.0
  O  O296  1  0.74030000  0.22960000  0.43619000  1.0
  O  O297  1  0.26810000  0.30950000  0.37710000  1.0
  O  O298  1  0.65620000  0.87220000  0.14960000  1.0
  O  O299  1  0.17940000  0.19530000  0.11640000  1.0
  O  O300  1  0.50310000  0.89920000  0.07840000  1.0
  O  O301  1  0.84410000  0.73510000  0.50938000  1.0
  O  O302  1  0.34120000  0.76550000  0.00930000  1.0
  O  O303  1  0.23940000  0.27030000  0.93634000  1.0
  O  O304  1  0.59960000  0.67600000  0.12730000  1.0
  O  O305  1  0.15590000  0.26490000  0.49062000  1.0
  O  O306  1  0.23130000  0.80910000  0.12190000  1.0
  O  O307  1  0.49960000  0.21720000  0.90671000  1.0
  O  O308  1  0.00330000  0.70880000  0.68730000  1.0
  O  O309  1  0.50330000  0.20880000  0.81270000  1.0
  O  O310  1  0.90040000  0.82400000  0.62730000  1.0
  O  O311  1  0.32060000  0.30470000  0.61640000  1.0
  O  O312  1  0.29170000  0.52560000  0.75120000  1.0
  O  O313  1  0.49670000  0.79120000  0.18730000  1.0
  O  O314  1  0.00020000  0.63680000  0.51690000  1.0
  O  O315  1  0.65740000  0.73220000  0.17980000  1.0
  O  O316  1  0.34260000  0.26780000  0.82020000  1.0
  O  O317  1  0.84380000  0.62780000  0.64960000  1.0
  O  O318  1  0.79170000  0.02560000  0.74880000  1.0
  O  O319  1  0.60090000  0.32690000  0.87530000  1.0
  O  O320  1  0.73190000  0.69050000  0.62290000  1.0
  O  O321  1  0.73130000  0.30910000  0.37810000  1.0
  O  O322  1  0.67940000  0.69530000  0.38360000  1.0
  O  O323  1  0.15760000  0.62800000  0.64990000  1.0
  O  O324  1  0.89910000  0.17310000  0.37530000  1.0
  O  O325  1  0.76870000  0.19090000  0.87810000  1.0
  O  O326  1  0.65760000  0.12800000  0.85010000  1.0
  O  O327  1  0.75970000  0.27040000  0.93619000  1.0
  O  O328  1  0.65880000  0.23450000  0.99070000  1.0
  O  O329  1  0.49980000  0.86320000  0.01690000  1.0
  O  O330  1  0.15740000  0.23220000  0.32020000  1.0
  O  O331  1  0.09960000  0.17600000  0.37270000  1.0
