# generated using pymatgen
data_ZnH2(CO2)2
_symmetry_space_group_name_H-M   'P 1'
_cell_length_a   11.41800000
_cell_length_b   10.03700000
_cell_length_c   18.54600000
_cell_angle_alpha   90.00000000
_cell_angle_beta   126.68000000
_cell_angle_gamma   90.00000000
_symmetry_Int_Tables_number   1
_chemical_formula_structural   ZnH2(CO2)2
_chemical_formula_sum   'Zn12 H24 C24 O48'
_cell_volume   1704.55113321
_cell_formula_units_Z   12
loop_
 _symmetry_equiv_pos_site_id
 _symmetry_equiv_pos_as_xyz
  1  'x, y, z'
loop_
 _atom_site_type_symbol
 _atom_site_label
 _atom_site_symmetry_multiplicity
 _atom_site_fract_x
 _atom_site_fract_y
 _atom_site_fract_z
 _atom_site_occupancy
  Zn  Zn0  1  0.93538000  0.87823000  0.69467000  1.0
  Zn  Zn1  1  0.87689000  0.57108000  0.63188000  1.0
  Zn  Zn2  1  0.06462000  0.37823000  0.80533000  1.0
  Zn  Zn3  1  0.12311000  0.07108000  0.86812000  1.0
  Zn  Zn4  1  0.06462000  0.12177000  0.30533000  1.0
  Zn  Zn5  1  0.12311000  0.42892000  0.36812000  1.0
  Zn  Zn6  1  0.93538000  0.62177000  0.19467000  1.0
  Zn  Zn7  1  0.87689000  0.92892000  0.13188000  1.0
  Zn  Zn8  1  0.00000000  0.50000000  0.50000000  1.0
  Zn  Zn9  1  0.00000000  0.00000000  0.00000000  1.0
  Zn  Zn10  1  0.50000000  0.50000000  0.50000000  1.0
  Zn  Zn11  1  0.50000000  0.00000000  0.00000000  1.0
  H  H12  1  0.53080000  0.78230000  0.53610000  1.0
  H  H13  1  0.02570000  0.72470000  0.86970000  1.0
  H  H14  1  0.99870000  0.87080000  0.55490000  1.0
  H  H15  1  0.72810000  0.35260000  0.42580000  1.0
  H  H16  1  0.74680000  0.28200000  0.71240000  1.0
  H  H17  1  0.27660000  0.44680000  0.75560000  1.0
  H  H18  1  0.46920000  0.28230000  0.96390000  1.0
  H  H19  1  0.97430000  0.22470000  0.63030000  1.0
  H  H20  1  0.00130000  0.37080000  0.94510000  1.0
  H  H21  1  0.27190000  0.85260000  0.07420000  1.0
  H  H22  1  0.25320000  0.78200000  0.78760000  1.0
  H  H23  1  0.72340000  0.94680000  0.74440000  1.0
  H  H24  1  0.46920000  0.21770000  0.46390000  1.0
  H  H25  1  0.97430000  0.27530000  0.13030000  1.0
  H  H26  1  0.00130000  0.12920000  0.44510000  1.0
  H  H27  1  0.27190000  0.64740000  0.57420000  1.0
  H  H28  1  0.25320000  0.71800000  0.28760000  1.0
  H  H29  1  0.72340000  0.55320000  0.24440000  1.0
  H  H30  1  0.53080000  0.71770000  0.03610000  1.0
  H  H31  1  0.02570000  0.77530000  0.36970000  1.0
  H  H32  1  0.99870000  0.62920000  0.05490000  1.0
  H  H33  1  0.72810000  0.14740000  0.92580000  1.0
  H  H34  1  0.74680000  0.21800000  0.21240000  1.0
  H  H35  1  0.27660000  0.05320000  0.25560000  1.0
  C  C36  1  0.63050000  0.76610000  0.56920000  1.0
  C  C37  1  0.01210000  0.65660000  0.83140000  1.0
  C  C38  1  0.98300000  0.78080000  0.55810000  1.0
  C  C39  1  0.72260000  0.40630000  0.46460000  1.0
  C  C40  1  0.73090000  0.35060000  0.67380000  1.0
  C  C41  1  0.18480000  0.47000000  0.70440000  1.0
  C  C42  1  0.36950000  0.26610000  0.93080000  1.0
  C  C43  1  0.98790000  0.15660000  0.66860000  1.0
  C  C44  1  0.01700000  0.28080000  0.94190000  1.0
  C  C45  1  0.27740000  0.90630000  0.03540000  1.0
  C  C46  1  0.26910000  0.85060000  0.82620000  1.0
  C  C47  1  0.81520000  0.97000000  0.79560000  1.0
  C  C48  1  0.36950000  0.23390000  0.43080000  1.0
  C  C49  1  0.98790000  0.34340000  0.16860000  1.0
  C  C50  1  0.01700000  0.21920000  0.44190000  1.0
  C  C51  1  0.27740000  0.59370000  0.53540000  1.0
  C  C52  1  0.26910000  0.64940000  0.32620000  1.0
  C  C53  1  0.81520000  0.53000000  0.29560000  1.0
  C  C54  1  0.63050000  0.73390000  0.06920000  1.0
  C  C55  1  0.01210000  0.84340000  0.33140000  1.0
  C  C56  1  0.98300000  0.71920000  0.05810000  1.0
  C  C57  1  0.72260000  0.09370000  0.96460000  1.0
  C  C58  1  0.73090000  0.14940000  0.17380000  1.0
  C  C59  1  0.18480000  0.03000000  0.20440000  1.0
  O  O60  1  0.71230000  0.86320000  0.60792000  1.0
  O  O61  1  0.66790000  0.64702000  0.56966000  1.0
  O  O62  1  0.94690000  0.68691000  0.74942000  1.0
  O  O63  1  0.05940000  0.54540000  0.86547000  1.0
  O  O64  1  0.95830000  0.74787000  0.61432000  1.0
  O  O65  1  0.98830000  0.70500000  0.50759000  1.0
  O  O66  1  0.83600000  0.47390000  0.52201000  1.0
  O  O67  1  0.60710000  0.40490000  0.45542000  1.0
  O  O68  1  0.84300000  0.41099000  0.69197000  1.0
  O  O69  1  0.60360000  0.37320000  0.61061000  1.0
  O  O70  1  0.08400000  0.47980000  0.71334000  1.0
  O  O71  1  0.17510000  0.48750000  0.63607000  1.0
  O  O72  1  0.28770000  0.36320000  0.89208000  1.0
  O  O73  1  0.33210000  0.14702000  0.93034000  1.0
  O  O74  1  0.05310000  0.18691000  0.75058000  1.0
  O  O75  1  0.94060000  0.04540000  0.63453000  1.0
  O  O76  1  0.04170000  0.24787000  0.88568000  1.0
  O  O77  1  0.01170000  0.20500000  0.99241000  1.0
  O  O78  1  0.16400000  0.97390000  0.97799000  1.0
  O  O79  1  0.39290000  0.90490000  0.04458000  1.0
  O  O80  1  0.15700000  0.91099000  0.80803000  1.0
  O  O81  1  0.39640000  0.87320000  0.88939000  1.0
  O  O82  1  0.91600000  0.97980000  0.78666000  1.0
  O  O83  1  0.82490000  0.98750000  0.86393000  1.0
  O  O84  1  0.28770000  0.13680000  0.39208000  1.0
  O  O85  1  0.33210000  0.35298000  0.43034000  1.0
  O  O86  1  0.05310000  0.31309000  0.25058000  1.0
  O  O87  1  0.94060000  0.45460000  0.13453000  1.0
  O  O88  1  0.04170000  0.25213000  0.38568000  1.0
  O  O89  1  0.01170000  0.29500000  0.49241000  1.0
  O  O90  1  0.16400000  0.52610000  0.47799000  1.0
  O  O91  1  0.39290000  0.59510000  0.54458000  1.0
  O  O92  1  0.15700000  0.58901000  0.30803000  1.0
  O  O93  1  0.39640000  0.62680000  0.38939000  1.0
  O  O94  1  0.91600000  0.52020000  0.28666000  1.0
  O  O95  1  0.82490000  0.51250000  0.36393000  1.0
  O  O96  1  0.71230000  0.63680000  0.10792000  1.0
  O  O97  1  0.66790000  0.85298000  0.06966000  1.0
  O  O98  1  0.94690000  0.81309000  0.24942000  1.0
  O  O99  1  0.05940000  0.95460000  0.36547000  1.0
  O  O100  1  0.95830000  0.75213000  0.11432000  1.0
  O  O101  1  0.98830000  0.79500000  0.00759000  1.0
  O  O102  1  0.83600000  0.02610000  0.02201000  1.0
  O  O103  1  0.60710000  0.09510000  0.95542000  1.0
  O  O104  1  0.84300000  0.08901000  0.19197000  1.0
  O  O105  1  0.60360000  0.12680000  0.11061000  1.0
  O  O106  1  0.08400000  0.02020000  0.21334000  1.0
  O  O107  1  0.17510000  0.01250000  0.13607000  1.0
