# generated using pymatgen
data_Cd4H12C24N10Cl
_symmetry_space_group_name_H-M   'P 1'
_cell_length_a   20.45200000
_cell_length_b   27.84900000
_cell_length_c   27.84900000
_cell_angle_alpha   90.00000000
_cell_angle_beta   90.00000000
_cell_angle_gamma   90.00000000
_symmetry_Int_Tables_number   1
_chemical_formula_structural   Cd4H12C24N10Cl
_chemical_formula_sum   'Cd32 H96 C192 N80 Cl8'
_cell_volume   15861.89221405
_cell_formula_units_Z   8
loop_
 _symmetry_equiv_pos_site_id
 _symmetry_equiv_pos_as_xyz
  1  'x, y, z'
loop_
 _atom_site_type_symbol
 _atom_site_label
 _atom_site_symmetry_multiplicity
 _atom_site_fract_x
 _atom_site_fract_y
 _atom_site_fract_z
 _atom_site_occupancy
  Cd  Cd0  1  0.12471000  0.31509000  0.45391000  1.0
  Cd  Cd1  1  0.50000000  0.17969000  0.67969000  1.0
  Cd  Cd2  1  0.12471000  0.81509000  0.04609000  1.0
  Cd  Cd3  1  0.87529000  0.95391000  0.81509000  1.0
  Cd  Cd4  1  0.87529000  0.04609000  0.18491000  1.0
  Cd  Cd5  1  0.87529000  0.81509000  0.04609000  1.0
  Cd  Cd6  1  0.00000000  0.02540000  0.09652000  1.0
  Cd  Cd7  1  0.87529000  0.68491000  0.54609000  1.0
  Cd  Cd8  1  0.12471000  0.18491000  0.95391000  1.0
  Cd  Cd9  1  0.12471000  0.54609000  0.31509000  1.0
  Cd  Cd10  1  0.87529000  0.54609000  0.31509000  1.0
  Cd  Cd11  1  0.00000000  0.52540000  0.40348000  1.0
  Cd  Cd12  1  0.00000000  0.90348000  0.02540000  1.0
  Cd  Cd13  1  0.00000000  0.59652000  0.52540000  1.0
  Cd  Cd14  1  0.87529000  0.31509000  0.45391000  1.0
  Cd  Cd15  1  0.50000000  0.82031000  0.32031000  1.0
  Cd  Cd16  1  0.50000000  0.32031000  0.17969000  1.0
  Cd  Cd17  1  0.87529000  0.18491000  0.95391000  1.0
  Cd  Cd18  1  0.00000000  0.09652000  0.97460000  1.0
  Cd  Cd19  1  0.87529000  0.45391000  0.68491000  1.0
  Cd  Cd20  1  0.50000000  0.72150000  0.77850000  1.0
  Cd  Cd21  1  0.50000000  0.27850000  0.22150000  1.0
  Cd  Cd22  1  0.12471000  0.68491000  0.54609000  1.0
  Cd  Cd23  1  0.50000000  0.67969000  0.82031000  1.0
  Cd  Cd24  1  0.00000000  0.97460000  0.90348000  1.0
  Cd  Cd25  1  0.50000000  0.77850000  0.27850000  1.0
  Cd  Cd26  1  0.50000000  0.22150000  0.72150000  1.0
  Cd  Cd27  1  0.00000000  0.40348000  0.47460000  1.0
  Cd  Cd28  1  0.12471000  0.04609000  0.18491000  1.0
  Cd  Cd29  1  0.12471000  0.95391000  0.81509000  1.0
  Cd  Cd30  1  0.00000000  0.47460000  0.59652000  1.0
  Cd  Cd31  1  0.12471000  0.45391000  0.68491000  1.0
  H  H32  1  0.67600000  0.82210000  0.15630000  1.0
  H  H33  1  0.68410000  0.55930000  0.74040000  1.0
  H  H34  1  0.56010000  0.58840000  0.66180000  1.0
  H  H35  1  0.22430000  0.19780000  0.03240000  1.0
  H  H36  1  0.68410000  0.94070000  0.24040000  1.0
  H  H37  1  0.31590000  0.44070000  0.25960000  1.0
  H  H38  1  0.74320000  0.17140000  0.73730000  1.0
  H  H39  1  0.76760000  0.84890000  0.11370000  1.0
  H  H40  1  0.32400000  0.34370000  0.67790000  1.0
  H  H41  1  0.22430000  0.96760000  0.19780000  1.0
  H  H42  1  0.25680000  0.82860000  0.26270000  1.0
  H  H43  1  0.32400000  0.84370000  0.82210000  1.0
  H  H44  1  0.56010000  0.08840000  0.83820000  1.0
  H  H45  1  0.32400000  0.15630000  0.17790000  1.0
  H  H46  1  0.68410000  0.24040000  0.05930000  1.0
  H  H47  1  0.31590000  0.74040000  0.44070000  1.0
  H  H48  1  0.56010000  0.41160000  0.33820000  1.0
  H  H49  1  0.32400000  0.67790000  0.65630000  1.0
  H  H50  1  0.74320000  0.82860000  0.26270000  1.0
  H  H51  1  0.77570000  0.19780000  0.03240000  1.0
  H  H52  1  0.77570000  0.80220000  0.96760000  1.0
  H  H53  1  0.67600000  0.84370000  0.82210000  1.0
  H  H54  1  0.43990000  0.83820000  0.91160000  1.0
  H  H55  1  0.74320000  0.76270000  0.32860000  1.0
  H  H56  1  0.31590000  0.24040000  0.05930000  1.0
  H  H57  1  0.74320000  0.32860000  0.23730000  1.0
  H  H58  1  0.22430000  0.53240000  0.69780000  1.0
  H  H59  1  0.76760000  0.88630000  0.84890000  1.0
  H  H60  1  0.56010000  0.33820000  0.58840000  1.0
  H  H61  1  0.23240000  0.38630000  0.65110000  1.0
  H  H62  1  0.25680000  0.67140000  0.76270000  1.0
  H  H63  1  0.67600000  0.32210000  0.34370000  1.0
  H  H64  1  0.23240000  0.84890000  0.11370000  1.0
  H  H65  1  0.77570000  0.53240000  0.69780000  1.0
  H  H66  1  0.25680000  0.32860000  0.23730000  1.0
  H  H67  1  0.22430000  0.03240000  0.80220000  1.0
  H  H68  1  0.67600000  0.17790000  0.84370000  1.0
  H  H69  1  0.23240000  0.15110000  0.88630000  1.0
  H  H70  1  0.31590000  0.75960000  0.94070000  1.0
  H  H71  1  0.23240000  0.88630000  0.84890000  1.0
  H  H72  1  0.68410000  0.25960000  0.55930000  1.0
  H  H73  1  0.56010000  0.83820000  0.91160000  1.0
  H  H74  1  0.22430000  0.69780000  0.46760000  1.0
  H  H75  1  0.76760000  0.11370000  0.15110000  1.0
  H  H76  1  0.67600000  0.15630000  0.17790000  1.0
  H  H77  1  0.43990000  0.66180000  0.41160000  1.0
  H  H78  1  0.67600000  0.34370000  0.67790000  1.0
  H  H79  1  0.76760000  0.65110000  0.61370000  1.0
  H  H80  1  0.23240000  0.65110000  0.61370000  1.0
  H  H81  1  0.23240000  0.34890000  0.38630000  1.0
  H  H82  1  0.68410000  0.44070000  0.25960000  1.0
  H  H83  1  0.31590000  0.05930000  0.75960000  1.0
  H  H84  1  0.32400000  0.65630000  0.32210000  1.0
  H  H85  1  0.43990000  0.91160000  0.16180000  1.0
  H  H86  1  0.67600000  0.65630000  0.32210000  1.0
  H  H87  1  0.77570000  0.03240000  0.80220000  1.0
  H  H88  1  0.77570000  0.46760000  0.30220000  1.0
  H  H89  1  0.43990000  0.33820000  0.58840000  1.0
  H  H90  1  0.76760000  0.34890000  0.38630000  1.0
  H  H91  1  0.25680000  0.23730000  0.67140000  1.0
  H  H92  1  0.56010000  0.16180000  0.08840000  1.0
  H  H93  1  0.23240000  0.11370000  0.15110000  1.0
  H  H94  1  0.25680000  0.76270000  0.32860000  1.0
  H  H95  1  0.31590000  0.94070000  0.24040000  1.0
  H  H96  1  0.32400000  0.82210000  0.15630000  1.0
  H  H97  1  0.32400000  0.17790000  0.84370000  1.0
  H  H98  1  0.32400000  0.32210000  0.34370000  1.0
  H  H99  1  0.22430000  0.80220000  0.96760000  1.0
  H  H100  1  0.74320000  0.23730000  0.67140000  1.0
  H  H101  1  0.43990000  0.58840000  0.66180000  1.0
  H  H102  1  0.23240000  0.61370000  0.34890000  1.0
  H  H103  1  0.74320000  0.73730000  0.82860000  1.0
  H  H104  1  0.56010000  0.66180000  0.41160000  1.0
  H  H105  1  0.31590000  0.55930000  0.74040000  1.0
  H  H106  1  0.77570000  0.69780000  0.46760000  1.0
  H  H107  1  0.77570000  0.30220000  0.53240000  1.0
  H  H108  1  0.68410000  0.05930000  0.75960000  1.0
  H  H109  1  0.22430000  0.30220000  0.53240000  1.0
  H  H110  1  0.77570000  0.96760000  0.19780000  1.0
  H  H111  1  0.43990000  0.08840000  0.83820000  1.0
  H  H112  1  0.22430000  0.46760000  0.30220000  1.0
  H  H113  1  0.68410000  0.74040000  0.44070000  1.0
  H  H114  1  0.74320000  0.26270000  0.17140000  1.0
  H  H115  1  0.56010000  0.91160000  0.16180000  1.0
  H  H116  1  0.25680000  0.73730000  0.82860000  1.0
  H  H117  1  0.31590000  0.25960000  0.55930000  1.0
  H  H118  1  0.25680000  0.17140000  0.73730000  1.0
  H  H119  1  0.43990000  0.41160000  0.33820000  1.0
  H  H120  1  0.76760000  0.15110000  0.88630000  1.0
  H  H121  1  0.67600000  0.67790000  0.65630000  1.0
  H  H122  1  0.76760000  0.38630000  0.65110000  1.0
  H  H123  1  0.68410000  0.75960000  0.94070000  1.0
  H  H124  1  0.43990000  0.16180000  0.08840000  1.0
  H  H125  1  0.76760000  0.61370000  0.34890000  1.0
  H  H126  1  0.74320000  0.67140000  0.76270000  1.0
  H  H127  1  0.25680000  0.26270000  0.17140000  1.0
  C  C128  1  0.30380000  0.35160000  0.33530000  1.0
  C  C129  1  0.70100000  0.92210000  0.21470000  1.0
  C  C130  1  0.75060000  0.13240000  0.86060000  1.0
  C  C131  1  0.38100000  0.76540000  0.85850000  1.0
  C  C132  1  0.75060000  0.36060000  0.63240000  1.0
  C  C133  1  0.35740000  0.82590000  0.26930000  1.0
  C  C134  1  0.29900000  0.71470000  0.42210000  1.0
  C  C135  1  0.21980000  0.91080000  0.15170000  1.0
  C  C136  1  0.29900000  0.78530000  0.92210000  1.0
  C  C137  1  0.24460000  0.43800000  0.31060000  1.0
  C  C138  1  0.15890000  0.12570000  0.07336000  1.0
  C  C139  1  0.70600000  0.72210000  0.81490000  1.0
  C  C140  1  0.15890000  0.62570000  0.42664000  1.0
  C  C141  1  0.24940000  0.63940000  0.36760000  1.0
  C  C142  1  0.29400000  0.18510000  0.72210000  1.0
  C  C143  1  0.21980000  0.41080000  0.34830000  1.0
  C  C144  1  0.29400000  0.68510000  0.77790000  1.0
  C  C145  1  0.46701000  0.31510000  0.60360000  1.0
  C  C146  1  0.70100000  0.28530000  0.57790000  1.0
  C  C147  1  0.61900000  0.73460000  0.35850000  1.0
  C  C148  1  0.61900000  0.14150000  0.76540000  1.0
  C  C149  1  0.69620000  0.14840000  0.83530000  1.0
  C  C150  1  0.44590000  0.87120000  0.22340000  1.0
  C  C151  1  0.21980000  0.65170000  0.41080000  1.0
  C  C152  1  0.55410000  0.12880000  0.77660000  1.0
  C  C153  1  0.61900000  0.26540000  0.64150000  1.0
  C  C154  1  0.75060000  0.36760000  0.36060000  1.0
  C  C155  1  0.75060000  0.63240000  0.63940000  1.0
  C  C156  1  0.44590000  0.72340000  0.37120000  1.0
  C  C157  1  0.55410000  0.72340000  0.37120000  1.0
  C  C158  1  0.24460000  0.68940000  0.43800000  1.0
  C  C159  1  0.64260000  0.23070000  0.67410000  1.0
  C  C160  1  0.30380000  0.85160000  0.16470000  1.0
  C  C161  1  0.44590000  0.12880000  0.77660000  1.0
  C  C162  1  0.69620000  0.33530000  0.64840000  1.0
  C  C163  1  0.78020000  0.84830000  0.91080000  1.0
  C  C164  1  0.69620000  0.16470000  0.14840000  1.0
  C  C165  1  0.67140000  0.79760000  0.87890000  1.0
  C  C166  1  0.75060000  0.13940000  0.13240000  1.0
  C  C167  1  0.24460000  0.18940000  0.06200000  1.0
  C  C168  1  0.61900000  0.64150000  0.73460000  1.0
  C  C169  1  0.46701000  0.10360000  0.81510000  1.0
  C  C170  1  0.30380000  0.64840000  0.66470000  1.0
  C  C171  1  0.21980000  0.08920000  0.84830000  1.0
  C  C172  1  0.32860000  0.79760000  0.87890000  1.0
  C  C173  1  0.75540000  0.18940000  0.06200000  1.0
  C  C174  1  0.32860000  0.70240000  0.37890000  1.0
  C  C175  1  0.53299000  0.89640000  0.18490000  1.0
  C  C176  1  0.61900000  0.35850000  0.26540000  1.0
  C  C177  1  0.32860000  0.37890000  0.29760000  1.0
  C  C178  1  0.21980000  0.15170000  0.08920000  1.0
  C  C179  1  0.24940000  0.36760000  0.36060000  1.0
  C  C180  1  0.67140000  0.37890000  0.29760000  1.0
  C  C181  1  0.75540000  0.68940000  0.43800000  1.0
  C  C182  1  0.32860000  0.29760000  0.62110000  1.0
  C  C183  1  0.24940000  0.36060000  0.63240000  1.0
  C  C184  1  0.67140000  0.70240000  0.37890000  1.0
  C  C185  1  0.84110000  0.42664000  0.37430000  1.0
  C  C186  1  0.44590000  0.22340000  0.12880000  1.0
  C  C187  1  0.46701000  0.39640000  0.31510000  1.0
  C  C188  1  0.44590000  0.77660000  0.87120000  1.0
  C  C189  1  0.70600000  0.68510000  0.77790000  1.0
  C  C190  1  0.38100000  0.85850000  0.23460000  1.0
  C  C191  1  0.78020000  0.34830000  0.58920000  1.0
  C  C192  1  0.29400000  0.22210000  0.68510000  1.0
  C  C193  1  0.44590000  0.37120000  0.27660000  1.0
  C  C194  1  0.67140000  0.12110000  0.79760000  1.0
  C  C195  1  0.69620000  0.83530000  0.85160000  1.0
  C  C196  1  0.15890000  0.92664000  0.12570000  1.0
  C  C197  1  0.21980000  0.34830000  0.58920000  1.0
  C  C198  1  0.46701000  0.68490000  0.39640000  1.0
  C  C199  1  0.69620000  0.64840000  0.66470000  1.0
  C  C200  1  0.32860000  0.12110000  0.79760000  1.0
  C  C201  1  0.55410000  0.87120000  0.22340000  1.0
  C  C202  1  0.64260000  0.82590000  0.26930000  1.0
  C  C203  1  0.55410000  0.37120000  0.27660000  1.0
  C  C204  1  0.70600000  0.18510000  0.72210000  1.0
  C  C205  1  0.84110000  0.07336000  0.87430000  1.0
  C  C206  1  0.70100000  0.21470000  0.07790000  1.0
  C  C207  1  0.53299000  0.31510000  0.60360000  1.0
  C  C208  1  0.38100000  0.23460000  0.14150000  1.0
  C  C209  1  0.38100000  0.35850000  0.26540000  1.0
  C  C210  1  0.70600000  0.31490000  0.22210000  1.0
  C  C211  1  0.67140000  0.20240000  0.12110000  1.0
  C  C212  1  0.44590000  0.27660000  0.62880000  1.0
  C  C213  1  0.30380000  0.83530000  0.85160000  1.0
  C  C214  1  0.70100000  0.57790000  0.71470000  1.0
  C  C215  1  0.84110000  0.87430000  0.92664000  1.0
  C  C216  1  0.84110000  0.92664000  0.12570000  1.0
  C  C217  1  0.38100000  0.64150000  0.73460000  1.0
  C  C218  1  0.32860000  0.20240000  0.12110000  1.0
  C  C219  1  0.35740000  0.67410000  0.76930000  1.0
  C  C220  1  0.53299000  0.10360000  0.81510000  1.0
  C  C221  1  0.35740000  0.26930000  0.17410000  1.0
  C  C222  1  0.55410000  0.77660000  0.87120000  1.0
  C  C223  1  0.46701000  0.81510000  0.89640000  1.0
  C  C224  1  0.64260000  0.32590000  0.23070000  1.0
  C  C225  1  0.30380000  0.14840000  0.83530000  1.0
  C  C226  1  0.55410000  0.22340000  0.12880000  1.0
  C  C227  1  0.70100000  0.42210000  0.28530000  1.0
  C  C228  1  0.15890000  0.07336000  0.87430000  1.0
  C  C229  1  0.24460000  0.93800000  0.18940000  1.0
  C  C230  1  0.44590000  0.62880000  0.72340000  1.0
  C  C231  1  0.64260000  0.67410000  0.76930000  1.0
  C  C232  1  0.70100000  0.07790000  0.78530000  1.0
  C  C233  1  0.75540000  0.81060000  0.93800000  1.0
  C  C234  1  0.53299000  0.68490000  0.39640000  1.0
  C  C235  1  0.64260000  0.17410000  0.73070000  1.0
  C  C236  1  0.53299000  0.18490000  0.10360000  1.0
  C  C237  1  0.38100000  0.14150000  0.76540000  1.0
  C  C238  1  0.24460000  0.56200000  0.68940000  1.0
  C  C239  1  0.35740000  0.73070000  0.82590000  1.0
  C  C240  1  0.35740000  0.23070000  0.67410000  1.0
  C  C241  1  0.24940000  0.63240000  0.63940000  1.0
  C  C242  1  0.15890000  0.87430000  0.92664000  1.0
  C  C243  1  0.78020000  0.65170000  0.41080000  1.0
  C  C244  1  0.70600000  0.81490000  0.27790000  1.0
  C  C245  1  0.35740000  0.76930000  0.32590000  1.0
  C  C246  1  0.69620000  0.35160000  0.33530000  1.0
  C  C247  1  0.29400000  0.27790000  0.18510000  1.0
  C  C248  1  0.75540000  0.31060000  0.56200000  1.0
  C  C249  1  0.30380000  0.33530000  0.64840000  1.0
  C  C250  1  0.53299000  0.60360000  0.68490000  1.0
  C  C251  1  0.78020000  0.41080000  0.34830000  1.0
  C  C252  1  0.55410000  0.27660000  0.62880000  1.0
  C  C253  1  0.75060000  0.86760000  0.13940000  1.0
  C  C254  1  0.46701000  0.60360000  0.68490000  1.0
  C  C255  1  0.29900000  0.92210000  0.21470000  1.0
  C  C256  1  0.69620000  0.85160000  0.16470000  1.0
  C  C257  1  0.61900000  0.23460000  0.14150000  1.0
  C  C258  1  0.70100000  0.71470000  0.42210000  1.0
  C  C259  1  0.84110000  0.57336000  0.62570000  1.0
  C  C260  1  0.70100000  0.78530000  0.92210000  1.0
  C  C261  1  0.70600000  0.27790000  0.18510000  1.0
  C  C262  1  0.38100000  0.26540000  0.64150000  1.0
  C  C263  1  0.84110000  0.62570000  0.42664000  1.0
  C  C264  1  0.46701000  0.89640000  0.18490000  1.0
  C  C265  1  0.24940000  0.13940000  0.13240000  1.0
  C  C266  1  0.53299000  0.81510000  0.89640000  1.0
  C  C267  1  0.75060000  0.63940000  0.36760000  1.0
  C  C268  1  0.69620000  0.66470000  0.35160000  1.0
  C  C269  1  0.64260000  0.73070000  0.82590000  1.0
  C  C270  1  0.29900000  0.42210000  0.28530000  1.0
  C  C271  1  0.24460000  0.06200000  0.81060000  1.0
  C  C272  1  0.29900000  0.07790000  0.78530000  1.0
  C  C273  1  0.24940000  0.86760000  0.13940000  1.0
  C  C274  1  0.24940000  0.86060000  0.86760000  1.0
  C  C275  1  0.67140000  0.29760000  0.62110000  1.0
  C  C276  1  0.35740000  0.32590000  0.23070000  1.0
  C  C277  1  0.29400000  0.72210000  0.81490000  1.0
  C  C278  1  0.55410000  0.62880000  0.72340000  1.0
  C  C279  1  0.64260000  0.26930000  0.17410000  1.0
  C  C280  1  0.70600000  0.22210000  0.68510000  1.0
  C  C281  1  0.24460000  0.31060000  0.56200000  1.0
  C  C282  1  0.38100000  0.73460000  0.35850000  1.0
  C  C283  1  0.64260000  0.76930000  0.32590000  1.0
  C  C284  1  0.15890000  0.57336000  0.62570000  1.0
  C  C285  1  0.21980000  0.58920000  0.65170000  1.0
  C  C286  1  0.78020000  0.91080000  0.15170000  1.0
  C  C287  1  0.61900000  0.76540000  0.85850000  1.0
  C  C288  1  0.21980000  0.84830000  0.91080000  1.0
  C  C289  1  0.75540000  0.06200000  0.81060000  1.0
  C  C290  1  0.35740000  0.17410000  0.73070000  1.0
  C  C291  1  0.61900000  0.85850000  0.23460000  1.0
  C  C292  1  0.84110000  0.37430000  0.57336000  1.0
  C  C293  1  0.29900000  0.21470000  0.07790000  1.0
  C  C294  1  0.30380000  0.16470000  0.14840000  1.0
  C  C295  1  0.15890000  0.37430000  0.57336000  1.0
  C  C296  1  0.29900000  0.57790000  0.71470000  1.0
  C  C297  1  0.53299000  0.39640000  0.31510000  1.0
  C  C298  1  0.78020000  0.58920000  0.65170000  1.0
  C  C299  1  0.32860000  0.87890000  0.20240000  1.0
  C  C300  1  0.15890000  0.42664000  0.37430000  1.0
  C  C301  1  0.75540000  0.56200000  0.68940000  1.0
  C  C302  1  0.29900000  0.28530000  0.57790000  1.0
  C  C303  1  0.75060000  0.86060000  0.86760000  1.0
  C  C304  1  0.29400000  0.77790000  0.31490000  1.0
  C  C305  1  0.70600000  0.77790000  0.31490000  1.0
  C  C306  1  0.67140000  0.87890000  0.20240000  1.0
  C  C307  1  0.24940000  0.13240000  0.86060000  1.0
  C  C308  1  0.29400000  0.31490000  0.22210000  1.0
  C  C309  1  0.75540000  0.93800000  0.18940000  1.0
  C  C310  1  0.75540000  0.43800000  0.31060000  1.0
  C  C311  1  0.24460000  0.81060000  0.93800000  1.0
  C  C312  1  0.84110000  0.12570000  0.07336000  1.0
  C  C313  1  0.78020000  0.08920000  0.84830000  1.0
  C  C314  1  0.32860000  0.62110000  0.70240000  1.0
  C  C315  1  0.46701000  0.18490000  0.10360000  1.0
  C  C316  1  0.78020000  0.15170000  0.08920000  1.0
  C  C317  1  0.29400000  0.81490000  0.27790000  1.0
  C  C318  1  0.67140000  0.62110000  0.70240000  1.0
  C  C319  1  0.30380000  0.66470000  0.35160000  1.0
  N  N320  1  0.13070000  0.89980000  0.09370000  1.0
  N  N321  1  0.07920000  0.39560000  0.53250000  1.0
  N  N322  1  0.39650000  0.69520000  0.80480000  1.0
  N  N323  1  0.92080000  0.46750000  0.39560000  1.0
  N  N324  1  0.50000000  0.35440000  0.25050000  1.0
  N  N325  1  0.86870000  0.03230000  0.86580000  1.0
  N  N326  1  0.13130000  0.13420000  0.03230000  1.0
  N  N327  1  0.86930000  0.09370000  0.10020000  1.0
  N  N328  1  0.13130000  0.63420000  0.46770000  1.0
  N  N329  1  0.07920000  0.60440000  0.46750000  1.0
  N  N330  1  0.13070000  0.40630000  0.60020000  1.0
  N  N331  1  0.50000000  0.74950000  0.35440000  1.0
  N  N332  1  0.86870000  0.63420000  0.46770000  1.0
  N  N333  1  0.08000000  0.57480000  0.57900000  1.0
  N  N334  1  0.50000000  0.85440000  0.24950000  1.0
  N  N335  1  0.07920000  0.10440000  0.03250000  1.0
  N  N336  1  0.50000000  0.14560000  0.75050000  1.0
  N  N337  1  0.86870000  0.36580000  0.53230000  1.0
  N  N338  1  0.39650000  0.19520000  0.69520000  1.0
  N  N339  1  0.07920000  0.46750000  0.39560000  1.0
  N  N340  1  0.60350000  0.19520000  0.69520000  1.0
  N  N341  1  0.92000000  0.07900000  0.07480000  1.0
  N  N342  1  0.92000000  0.42520000  0.42100000  1.0
  N  N343  1  0.39650000  0.80480000  0.30480000  1.0
  N  N344  1  0.50000000  0.64560000  0.74950000  1.0
  N  N345  1  0.86930000  0.39980000  0.40630000  1.0
  N  N346  1  0.08000000  0.42100000  0.57480000  1.0
  N  N347  1  0.92000000  0.92520000  0.07900000  1.0
  N  N348  1  0.39650000  0.30480000  0.19520000  1.0
  N  N349  1  0.86930000  0.59370000  0.39980000  1.0
  N  N350  1  0.92080000  0.10440000  0.03250000  1.0
  N  N351  1  0.50000000  0.24950000  0.14560000  1.0
  N  N352  1  0.08000000  0.07480000  0.92100000  1.0
  N  N353  1  0.13130000  0.36580000  0.53230000  1.0
  N  N354  1  0.92080000  0.96750000  0.10440000  1.0
  N  N355  1  0.92000000  0.57480000  0.57900000  1.0
  N  N356  1  0.13130000  0.96770000  0.13420000  1.0
  N  N357  1  0.92080000  0.89560000  0.96750000  1.0
  N  N358  1  0.13130000  0.86580000  0.96770000  1.0
  N  N359  1  0.08000000  0.42520000  0.42100000  1.0
  N  N360  1  0.86870000  0.86580000  0.96770000  1.0
  N  N361  1  0.13070000  0.39980000  0.40630000  1.0
  N  N362  1  0.86930000  0.60020000  0.59370000  1.0
  N  N363  1  0.86930000  0.90630000  0.89980000  1.0
  N  N364  1  0.92080000  0.53250000  0.60440000  1.0
  N  N365  1  0.13130000  0.03230000  0.86580000  1.0
  N  N366  1  0.08000000  0.92520000  0.07900000  1.0
  N  N367  1  0.07920000  0.53250000  0.60440000  1.0
  N  N368  1  0.07920000  0.89560000  0.96750000  1.0
  N  N369  1  0.92000000  0.42100000  0.57480000  1.0
  N  N370  1  0.07920000  0.96750000  0.10440000  1.0
  N  N371  1  0.13070000  0.60020000  0.59370000  1.0
  N  N372  1  0.92000000  0.07480000  0.92100000  1.0
  N  N373  1  0.92000000  0.57900000  0.42520000  1.0
  N  N374  1  0.86930000  0.89980000  0.09370000  1.0
  N  N375  1  0.92080000  0.03250000  0.89560000  1.0
  N  N376  1  0.92080000  0.60440000  0.46750000  1.0
  N  N377  1  0.92000000  0.92100000  0.92520000  1.0
  N  N378  1  0.50000000  0.75050000  0.85440000  1.0
  N  N379  1  0.13070000  0.59370000  0.39980000  1.0
  N  N380  1  0.13070000  0.10020000  0.90630000  1.0
  N  N381  1  0.13070000  0.90630000  0.89980000  1.0
  N  N382  1  0.60350000  0.30480000  0.19520000  1.0
  N  N383  1  0.13070000  0.09370000  0.10020000  1.0
  N  N384  1  0.13130000  0.46770000  0.36580000  1.0
  N  N385  1  0.86870000  0.13420000  0.03230000  1.0
  N  N386  1  0.86870000  0.53230000  0.63420000  1.0
  N  N387  1  0.07920000  0.03250000  0.89560000  1.0
  N  N388  1  0.86870000  0.46770000  0.36580000  1.0
  N  N389  1  0.92080000  0.39560000  0.53250000  1.0
  N  N390  1  0.13130000  0.53230000  0.63420000  1.0
  N  N391  1  0.50000000  0.25050000  0.64560000  1.0
  N  N392  1  0.86930000  0.40630000  0.60020000  1.0
  N  N393  1  0.08000000  0.57900000  0.42520000  1.0
  N  N394  1  0.60350000  0.80480000  0.30480000  1.0
  N  N395  1  0.86930000  0.10020000  0.90630000  1.0
  N  N396  1  0.60350000  0.69520000  0.80480000  1.0
  N  N397  1  0.86870000  0.96770000  0.13420000  1.0
  N  N398  1  0.08000000  0.92100000  0.92520000  1.0
  N  N399  1  0.08000000  0.07900000  0.07480000  1.0
  Cl  Cl400  1  0.00000000  0.95120000  0.81781000  1.0
  Cl  Cl401  1  0.00000000  0.04880000  0.18219000  1.0
  Cl  Cl402  1  0.00000000  0.54880000  0.31781000  1.0
  Cl  Cl403  1  0.00000000  0.81781000  0.04880000  1.0
  Cl  Cl404  1  0.00000000  0.45120000  0.68219000  1.0
  Cl  Cl405  1  0.00000000  0.31781000  0.45120000  1.0
  Cl  Cl406  1  0.00000000  0.18219000  0.95120000  1.0
  Cl  Cl407  1  0.00000000  0.68219000  0.54880000  1.0
