# generated using pymatgen
data_Zr3H36(C14O3)4
_symmetry_space_group_name_H-M   'P 1'
_cell_length_a   33.22300000
_cell_length_b   33.22300000
_cell_length_c   33.22300000
_cell_angle_alpha   90.00000000
_cell_angle_beta   90.00000000
_cell_angle_gamma   90.00000000
_symmetry_Int_Tables_number   1
_chemical_formula_structural   Zr3H36(C14O3)4
_chemical_formula_sum   'Zr18 H216 C336 O72'
_cell_volume   36670.47526057
_cell_formula_units_Z   6
loop_
 _symmetry_equiv_pos_site_id
 _symmetry_equiv_pos_as_xyz
  1  'x, y, z'
loop_
 _atom_site_type_symbol
 _atom_site_label
 _atom_site_symmetry_multiplicity
 _atom_site_fract_x
 _atom_site_fract_y
 _atom_site_fract_z
 _atom_site_occupancy
  Zr  Zr0  1  0.44691000  0.44691000  0.00000000  1.0
  Zr  Zr1  1  0.55309000  0.55309000  0.00000000  1.0
  Zr  Zr2  1  0.55309000  0.44691000  0.00000000  1.0
  Zr  Zr3  1  0.44691000  0.55309000  0.00000000  1.0
  Zr  Zr4  1  0.00000000  0.44691000  0.44691000  1.0
  Zr  Zr5  1  0.00000000  0.55309000  0.55309000  1.0
  Zr  Zr6  1  0.00000000  0.55309000  0.44691000  1.0
  Zr  Zr7  1  0.00000000  0.44691000  0.55309000  1.0
  Zr  Zr8  1  0.44691000  0.00000000  0.44691000  1.0
  Zr  Zr9  1  0.55309000  0.00000000  0.55309000  1.0
  Zr  Zr10  1  0.44691000  0.00000000  0.55309000  1.0
  Zr  Zr11  1  0.55309000  0.00000000  0.44691000  1.0
  Zr  Zr12  1  0.50000000  0.50000000  0.07378000  1.0
  Zr  Zr13  1  0.50000000  0.50000000  0.92622000  1.0
  Zr  Zr14  1  0.07378000  0.50000000  0.50000000  1.0
  Zr  Zr15  1  0.92622000  0.50000000  0.50000000  1.0
  Zr  Zr16  1  0.50000000  0.07378000  0.50000000  1.0
  Zr  Zr17  1  0.50000000  0.92622000  0.50000000  1.0
  H  H18  1  0.33311000  0.67822000  0.88369000  1.0
  H  H19  1  0.29788000  0.71162000  0.82772000  1.0
  H  H20  1  0.35665000  0.63355000  0.74284000  1.0
  H  H21  1  0.11635000  0.67454000  0.67092000  1.0
  H  H22  1  0.17248000  0.70845000  0.70542000  1.0
  H  H23  1  0.25765000  0.63674000  0.63943000  1.0
  H  H24  1  0.32881000  0.88369000  0.67421000  1.0
  H  H25  1  0.29445000  0.82756000  0.70827000  1.0
  H  H26  1  0.36122000  0.74236000  0.63730000  1.0
  H  H27  1  0.37130000  0.73394000  0.77513000  1.0
  H  H28  1  0.35427000  0.78079000  0.75530000  1.0
  H  H29  1  0.38474000  0.74747000  0.72491000  1.0
  H  H30  1  0.26611000  0.77530000  0.62904000  1.0
  H  H31  1  0.21935000  0.75497000  0.64565000  1.0
  H  H32  1  0.25295000  0.72501000  0.61507000  1.0
  H  H33  1  0.26378000  0.63107000  0.77709000  1.0
  H  H34  1  0.21784000  0.64742000  0.75489000  1.0
  H  H35  1  0.25192000  0.61556000  0.72685000  1.0
  H  H36  1  0.38113000  0.62718000  0.90776000  1.0
  H  H37  1  0.43949000  0.54907000  0.82151000  1.0
  H  H38  1  0.40385000  0.58214000  0.76685000  1.0
  H  H39  1  0.37777000  0.90785000  0.62412000  1.0
  H  H40  1  0.44450000  0.82116000  0.55352000  1.0
  H  H41  1  0.41019000  0.76635000  0.58766000  1.0
  H  H42  1  0.09217000  0.62449000  0.62189000  1.0
  H  H43  1  0.17884000  0.55300000  0.55608000  1.0
  H  H44  1  0.23364000  0.58692000  0.59062000  1.0
  H  H45  1  0.67249000  0.11595000  0.67299000  1.0
  H  H46  1  0.70687000  0.17194000  0.70726000  1.0
  H  H47  1  0.63860000  0.25746000  0.63811000  1.0
  H  H48  1  0.67315000  0.32768000  0.88363000  1.0
  H  H49  1  0.70726000  0.29340000  0.82748000  1.0
  H  H50  1  0.63762000  0.36155000  0.74229000  1.0
  H  H51  1  0.88380000  0.32630000  0.67176000  1.0
  H  H52  1  0.82772000  0.29214000  0.70610000  1.0
  H  H53  1  0.74240000  0.36233000  0.63868000  1.0
  H  H54  1  0.73531000  0.22357000  0.63013000  1.0
  H  H55  1  0.78171000  0.24446000  0.64699000  1.0
  H  H56  1  0.74825000  0.27376000  0.61562000  1.0
  H  H57  1  0.77547000  0.37065000  0.73433000  1.0
  H  H58  1  0.75475000  0.35411000  0.78094000  1.0
  H  H59  1  0.72515000  0.38484000  0.74716000  1.0
  H  H60  1  0.62991000  0.22380000  0.73507000  1.0
  H  H61  1  0.64654000  0.24493000  0.78145000  1.0
  H  H62  1  0.61539000  0.27408000  0.74766000  1.0
  H  H63  1  0.62300000  0.09200000  0.62336000  1.0
  H  H64  1  0.55490000  0.17891000  0.55437000  1.0
  H  H65  1  0.58929000  0.23362000  0.58863000  1.0
  H  H66  1  0.90789000  0.37619000  0.62257000  1.0
  H  H67  1  0.82112000  0.44610000  0.55522000  1.0
  H  H68  1  0.76634000  0.41191000  0.58955000  1.0
  H  H69  1  0.62352000  0.37711000  0.90782000  1.0
  H  H70  1  0.55408000  0.44507000  0.82114000  1.0
  H  H71  1  0.58818000  0.41074000  0.76632000  1.0
  H  H72  1  0.32724000  0.11600000  0.67271000  1.0
  H  H73  1  0.29296000  0.17200000  0.70705000  1.0
  H  H74  1  0.36181000  0.25748000  0.63842000  1.0
  H  H75  1  0.11642000  0.32763000  0.67308000  1.0
  H  H76  1  0.17259000  0.29336000  0.70717000  1.0
  H  H77  1  0.25774000  0.36152000  0.63750000  1.0
  H  H78  1  0.32775000  0.32681000  0.88374000  1.0
  H  H79  1  0.29350000  0.29260000  0.82764000  1.0
  H  H80  1  0.36168000  0.36211000  0.74236000  1.0
  H  H81  1  0.36997000  0.22371000  0.73531000  1.0
  H  H82  1  0.35312000  0.24465000  0.78170000  1.0
  H  H83  1  0.38445000  0.27392000  0.74818000  1.0
  H  H84  1  0.26576000  0.37085000  0.77525000  1.0
  H  H85  1  0.21913000  0.35430000  0.75456000  1.0
  H  H86  1  0.25295000  0.38492000  0.72489000  1.0
  H  H87  1  0.26506000  0.22380000  0.62988000  1.0
  H  H88  1  0.21866000  0.24493000  0.64646000  1.0
  H  H89  1  0.25247000  0.27407000  0.61533000  1.0
  H  H90  1  0.37682000  0.09201000  0.62317000  1.0
  H  H91  1  0.44549000  0.17890000  0.55472000  1.0
  H  H92  1  0.41122000  0.23363000  0.58907000  1.0
  H  H93  1  0.37709000  0.37653000  0.90786000  1.0
  H  H94  1  0.44519000  0.44575000  0.82113000  1.0
  H  H95  1  0.41094000  0.41152000  0.76633000  1.0
  H  H96  1  0.09220000  0.37710000  0.62351000  1.0
  H  H97  1  0.17884000  0.44510000  0.55407000  1.0
  H  H98  1  0.23369000  0.41074000  0.58810000  1.0
  H  H99  1  0.32638000  0.88392000  0.32820000  1.0
  H  H100  1  0.29226000  0.82788000  0.29376000  1.0
  H  H101  1  0.36253000  0.74248000  0.36101000  1.0
  H  H102  1  0.11647000  0.67446000  0.32904000  1.0
  H  H103  1  0.17264000  0.70836000  0.29460000  1.0
  H  H104  1  0.25773000  0.63669000  0.36074000  1.0
  H  H105  1  0.33001000  0.67538000  0.11628000  1.0
  H  H106  1  0.29540000  0.70926000  0.17236000  1.0
  H  H107  1  0.35994000  0.63628000  0.25757000  1.0
  H  H108  1  0.37025000  0.77609000  0.26507000  1.0
  H  H109  1  0.35322000  0.75564000  0.21854000  1.0
  H  H110  1  0.38445000  0.72592000  0.25176000  1.0
  H  H111  1  0.26521000  0.62986000  0.22406000  1.0
  H  H112  1  0.21883000  0.64606000  0.24554000  1.0
  H  H113  1  0.25303000  0.61509000  0.27441000  1.0
  H  H114  1  0.26561000  0.77554000  0.37080000  1.0
  H  H115  1  0.21901000  0.75505000  0.35397000  1.0
  H  H116  1  0.25255000  0.72525000  0.38476000  1.0
  H  H117  1  0.37619000  0.90794000  0.37746000  1.0
  H  H118  1  0.44632000  0.82112000  0.44452000  1.0
  H  H119  1  0.41221000  0.76637000  0.41006000  1.0
  H  H120  1  0.37870000  0.62502000  0.09216000  1.0
  H  H121  1  0.44313000  0.55228000  0.17882000  1.0
  H  H122  1  0.40847000  0.58614000  0.23360000  1.0
  H  H123  1  0.09223000  0.62441000  0.37803000  1.0
  H  H124  1  0.17881000  0.55287000  0.44389000  1.0
  H  H125  1  0.23366000  0.58679000  0.40943000  1.0
  H  H126  1  0.88399000  0.67259000  0.67287000  1.0
  H  H127  1  0.82798000  0.70693000  0.70714000  1.0
  H  H128  1  0.74251000  0.63852000  0.63808000  1.0
  H  H129  1  0.67183000  0.67361000  0.88356000  1.0
  H  H130  1  0.70617000  0.70762000  0.82739000  1.0
  H  H131  1  0.63883000  0.63713000  0.74227000  1.0
  H  H132  1  0.67312000  0.88372000  0.67233000  1.0
  H  H133  1  0.70733000  0.82761000  0.70656000  1.0
  H  H134  1  0.63799000  0.74234000  0.63819000  1.0
  H  H135  1  0.77632000  0.73529000  0.63005000  1.0
  H  H136  1  0.75531000  0.78166000  0.64683000  1.0
  H  H137  1  0.72610000  0.74807000  0.61551000  1.0
  H  H138  1  0.62900000  0.77512000  0.73406000  1.0
  H  H139  1  0.64563000  0.75463000  0.78075000  1.0
  H  H140  1  0.61506000  0.72478000  0.74704000  1.0
  H  H141  1  0.77620000  0.62989000  0.73500000  1.0
  H  H142  1  0.75498000  0.64644000  0.78137000  1.0
  H  H143  1  0.72592000  0.61530000  0.74750000  1.0
  H  H144  1  0.90798000  0.62305000  0.62330000  1.0
  H  H145  1  0.82110000  0.55480000  0.55442000  1.0
  H  H146  1  0.76637000  0.58918000  0.58865000  1.0
  H  H147  1  0.62341000  0.90786000  0.62298000  1.0
  H  H148  1  0.55436000  0.82113000  0.55469000  1.0
  H  H149  1  0.58862000  0.76633000  0.58890000  1.0
  H  H150  1  0.62254000  0.62386000  0.90779000  1.0
  H  H151  1  0.55543000  0.55354000  0.82117000  1.0
  H  H152  1  0.58984000  0.58751000  0.76632000  1.0
  H  H153  1  0.67271000  0.88395000  0.32727000  1.0
  H  H154  1  0.70703000  0.82792000  0.29301000  1.0
  H  H155  1  0.63837000  0.74248000  0.36187000  1.0
  H  H156  1  0.67221000  0.67324000  0.11645000  1.0
  H  H157  1  0.70644000  0.70734000  0.17263000  1.0
  H  H158  1  0.63825000  0.63767000  0.25776000  1.0
  H  H159  1  0.88372000  0.67462000  0.32922000  1.0
  H  H160  1  0.82762000  0.70861000  0.29474000  1.0
  H  H161  1  0.74239000  0.63683000  0.36058000  1.0
  H  H162  1  0.73501000  0.77608000  0.37025000  1.0
  H  H163  1  0.78150000  0.75548000  0.35329000  1.0
  H  H164  1  0.74815000  0.72588000  0.38449000  1.0
  H  H165  1  0.77555000  0.62945000  0.26555000  1.0
  H  H166  1  0.75452000  0.64586000  0.21903000  1.0
  H  H167  1  0.72519000  0.61507000  0.25300000  1.0
  H  H168  1  0.62959000  0.77591000  0.26531000  1.0
  H  H169  1  0.64624000  0.75501000  0.21883000  1.0
  H  H170  1  0.61526000  0.72562000  0.25257000  1.0
  H  H171  1  0.62315000  0.90796000  0.37679000  1.0
  H  H172  1  0.55466000  0.82111000  0.44548000  1.0
  H  H173  1  0.58900000  0.76637000  0.41124000  1.0
  H  H174  1  0.90785000  0.62448000  0.37813000  1.0
  H  H175  1  0.82116000  0.55296000  0.44386000  1.0
  H  H176  1  0.76637000  0.58694000  0.40936000  1.0
  H  H177  1  0.62285000  0.62356000  0.09222000  1.0
  H  H178  1  0.55490000  0.55405000  0.17884000  1.0
  H  H179  1  0.58913000  0.58819000  0.23369000  1.0
  H  H180  1  0.32616000  0.11606000  0.32841000  1.0
  H  H181  1  0.29202000  0.17209000  0.29397000  1.0
  H  H182  1  0.36252000  0.25751000  0.36097000  1.0
  H  H183  1  0.32659000  0.32797000  0.11646000  1.0
  H  H184  1  0.29256000  0.29366000  0.17264000  1.0
  H  H185  1  0.36272000  0.36136000  0.25776000  1.0
  H  H186  1  0.11630000  0.32560000  0.32901000  1.0
  H  H187  1  0.17241000  0.29159000  0.29457000  1.0
  H  H188  1  0.25763000  0.36306000  0.36076000  1.0
  H  H189  1  0.26510000  0.22411000  0.37043000  1.0
  H  H190  1  0.21857000  0.24460000  0.35343000  1.0
  H  H191  1  0.25191000  0.27431000  0.38453000  1.0
  H  H192  1  0.22467000  0.37079000  0.26574000  1.0
  H  H193  1  0.24541000  0.35425000  0.21914000  1.0
  H  H194  1  0.27502000  0.38494000  0.25295000  1.0
  H  H195  1  0.37005000  0.22376000  0.26501000  1.0
  H  H196  1  0.35356000  0.24507000  0.21866000  1.0
  H  H197  1  0.38473000  0.27405000  0.25258000  1.0
  H  H198  1  0.37605000  0.09205000  0.37761000  1.0
  H  H199  1  0.44640000  0.17888000  0.44441000  1.0
  H  H200  1  0.41227000  0.23362000  0.40996000  1.0
  H  H201  1  0.09216000  0.37567000  0.37797000  1.0
  H  H202  1  0.17884000  0.44688000  0.44406000  1.0
  H  H203  1  0.23364000  0.41287000  0.40960000  1.0
  H  H204  1  0.37629000  0.37731000  0.09222000  1.0
  H  H205  1  0.44624000  0.44481000  0.17884000  1.0
  H  H206  1  0.41225000  0.41044000  0.23369000  1.0
  H  H207  1  0.88402000  0.32838000  0.32618000  1.0
  H  H208  1  0.82803000  0.29386000  0.29205000  1.0
  H  H209  1  0.74254000  0.36067000  0.36266000  1.0
  H  H210  1  0.67372000  0.32826000  0.11640000  1.0
  H  H211  1  0.70777000  0.29394000  0.17255000  1.0
  H  H212  1  0.63739000  0.36134000  0.25772000  1.0
  H  H213  1  0.67360000  0.11619000  0.32814000  1.0
  H  H214  1  0.70778000  0.17226000  0.29380000  1.0
  H  H215  1  0.63767000  0.25759000  0.36129000  1.0
  H  H216  1  0.77653000  0.26451000  0.36973000  1.0
  H  H217  1  0.75551000  0.21818000  0.35288000  1.0
  H  H218  1  0.72634000  0.25166000  0.38435000  1.0
  H  H219  1  0.62955000  0.22437000  0.26541000  1.0
  H  H220  1  0.64598000  0.24543000  0.21891000  1.0
  H  H221  1  0.61515000  0.27472000  0.25288000  1.0
  H  H222  1  0.77587000  0.37048000  0.26536000  1.0
  H  H223  1  0.75516000  0.35374000  0.21882000  1.0
  H  H224  1  0.72560000  0.38467000  0.25245000  1.0
  H  H225  1  0.90799000  0.37763000  0.37603000  1.0
  H  H226  1  0.82111000  0.44426000  0.44648000  1.0
  H  H227  1  0.76639000  0.40968000  0.41242000  1.0
  H  H228  1  0.62377000  0.09210000  0.37739000  1.0
  H  H229  1  0.55395000  0.17888000  0.44482000  1.0
  H  H230  1  0.58813000  0.23366000  0.41046000  1.0
  H  H231  1  0.62389000  0.37749000  0.09219000  1.0
  H  H232  1  0.55365000  0.44465000  0.17885000  1.0
  H  H233  1  0.58773000  0.41032000  0.23368000  1.0
  C  C234  1  0.43521000  0.43521000  0.09761000  1.0
  C  C235  1  0.56479000  0.56479000  0.09761000  1.0
  C  C236  1  0.56479000  0.43521000  0.90239000  1.0
  C  C237  1  0.43521000  0.56479000  0.90239000  1.0
  C  C238  1  0.09761000  0.43521000  0.43521000  1.0
  C  C239  1  0.09761000  0.56479000  0.56479000  1.0
  C  C240  1  0.90239000  0.56479000  0.43521000  1.0
  C  C241  1  0.90239000  0.43521000  0.56479000  1.0
  C  C242  1  0.43521000  0.09761000  0.43521000  1.0
  C  C243  1  0.56479000  0.09761000  0.56479000  1.0
  C  C244  1  0.43521000  0.90239000  0.56479000  1.0
  C  C245  1  0.56479000  0.90239000  0.43521000  1.0
  C  C246  1  0.43521000  0.43521000  0.90239000  1.0
  C  C247  1  0.56479000  0.56479000  0.90239000  1.0
  C  C248  1  0.43521000  0.56479000  0.09761000  1.0
  C  C249  1  0.56479000  0.43521000  0.09761000  1.0
  C  C250  1  0.43521000  0.09761000  0.56479000  1.0
  C  C251  1  0.56479000  0.09761000  0.43521000  1.0
  C  C252  1  0.56479000  0.90239000  0.56479000  1.0
  C  C253  1  0.43521000  0.90239000  0.43521000  1.0
  C  C254  1  0.09761000  0.43521000  0.56479000  1.0
  C  C255  1  0.09761000  0.56479000  0.43521000  1.0
  C  C256  1  0.90239000  0.43521000  0.43521000  1.0
  C  C257  1  0.90239000  0.56479000  0.56479000  1.0
  C  C258  1  0.36546000  0.63642000  0.84546000  1.0
  C  C259  1  0.33851000  0.66809000  0.85316000  1.0
  C  C260  1  0.31842000  0.68712000  0.82139000  1.0
  C  C261  1  0.32506000  0.67478000  0.78157000  1.0
  C  C262  1  0.35167000  0.64302000  0.77367000  1.0
  C  C263  1  0.37191000  0.62379000  0.80532000  1.0
  C  C264  1  0.30467000  0.69530000  0.74759000  1.0
  C  C265  1  0.15471000  0.63585000  0.63504000  1.0
  C  C266  1  0.14698000  0.66595000  0.66373000  1.0
  C  C267  1  0.17886000  0.68528000  0.68340000  1.0
  C  C268  1  0.21878000  0.67476000  0.67465000  1.0
  C  C269  1  0.22671000  0.64476000  0.64610000  1.0
  C  C270  1  0.19499000  0.62527000  0.62624000  1.0
  C  C271  1  0.25287000  0.69518000  0.69511000  1.0
  C  C272  1  0.36505000  0.84531000  0.63589000  1.0
  C  C273  1  0.33621000  0.85305000  0.66584000  1.0
  C  C274  1  0.31664000  0.82118000  0.68525000  1.0
  C  C275  1  0.32563000  0.78125000  0.67495000  1.0
  C  C276  1  0.35436000  0.77330000  0.64513000  1.0
  C  C277  1  0.37414000  0.80502000  0.62558000  1.0
  C  C278  1  0.30495000  0.74722000  0.69514000  1.0
  C  C279  1  0.32224000  0.73007000  0.73012000  1.0
  C  C280  1  0.36015000  0.74883000  0.74750000  1.0
  C  C281  1  0.26967000  0.67806000  0.73030000  1.0
  C  C282  1  0.25000000  0.64101000  0.74842000  1.0
  C  C283  1  0.27016000  0.72991000  0.67762000  1.0
  C  C284  1  0.25137000  0.74741000  0.63981000  1.0
  C  C285  1  0.12296000  0.61620000  0.61502000  1.0
  C  C286  1  0.13093000  0.58601000  0.58622000  1.0
  C  C287  1  0.17137000  0.57600000  0.57794000  1.0
  C  C288  1  0.20294000  0.59537000  0.59770000  1.0
  C  C289  1  0.38612000  0.61725000  0.87709000  1.0
  C  C290  1  0.41325000  0.58555000  0.86916000  1.0
  C  C291  1  0.41909000  0.57340000  0.82888000  1.0
  C  C292  1  0.39866000  0.59225000  0.79743000  1.0
  C  C293  1  0.38491000  0.87705000  0.61609000  1.0
  C  C294  1  0.41388000  0.86908000  0.58608000  1.0
  C  C295  1  0.42248000  0.82862000  0.57637000  1.0
  C  C296  1  0.40287000  0.79706000  0.59587000  1.0
  C  C297  1  0.63549000  0.15449000  0.63556000  1.0
  C  C298  1  0.66477000  0.14662000  0.66504000  1.0
  C  C299  1  0.68437000  0.17841000  0.68458000  1.0
  C  C300  1  0.67494000  0.21839000  0.67487000  1.0
  C  C301  1  0.64578000  0.22648000  0.64550000  1.0
  C  C302  1  0.62601000  0.19482000  0.62578000  1.0
  C  C303  1  0.69542000  0.25231000  0.69537000  1.0
  C  C304  1  0.63549000  0.36462000  0.84526000  1.0
  C  C305  1  0.66507000  0.33540000  0.85299000  1.0
  C  C306  1  0.68450000  0.31585000  0.82111000  1.0
  C  C307  1  0.67462000  0.32527000  0.78117000  1.0
  C  C308  1  0.64515000  0.35436000  0.77323000  1.0
  C  C309  1  0.62554000  0.37409000  0.80498000  1.0
  C  C310  1  0.69508000  0.30483000  0.74710000  1.0
  C  C311  1  0.84536000  0.36422000  0.63517000  1.0
  C  C312  1  0.85315000  0.33447000  0.66419000  1.0
  C  C313  1  0.82131000  0.31499000  0.68375000  1.0
  C  C314  1  0.78135000  0.32501000  0.67455000  1.0
  C  C315  1  0.77335000  0.35467000  0.64566000  1.0
  C  C316  1  0.80506000  0.37430000  0.62589000  1.0
  C  C317  1  0.74736000  0.30475000  0.69523000  1.0
  C  C318  1  0.73040000  0.26961000  0.67806000  1.0
  C  C319  1  0.74971000  0.25171000  0.64069000  1.0
  C  C320  1  0.67792000  0.26974000  0.73017000  1.0
  C  C321  1  0.64042000  0.25200000  0.74937000  1.0
  C  C322  1  0.72992000  0.32228000  0.72995000  1.0
  C  C323  1  0.74744000  0.36001000  0.74887000  1.0
  C  C324  1  0.61573000  0.38452000  0.87702000  1.0
  C  C325  1  0.58606000  0.41385000  0.86906000  1.0
  C  C326  1  0.57666000  0.42277000  0.82860000  1.0
  C  C327  1  0.59614000  0.40315000  0.79703000  1.0
  C  C328  1  0.61556000  0.12282000  0.61570000  1.0
  C  C329  1  0.58617000  0.13089000  0.58612000  1.0
  C  C330  1  0.57724000  0.17138000  0.57689000  1.0
  C  C331  1  0.59690000  0.20288000  0.59647000  1.0
  C  C332  1  0.87708000  0.38406000  0.61529000  1.0
  C  C333  1  0.86908000  0.41390000  0.58614000  1.0
  C  C334  1  0.82861000  0.42339000  0.57738000  1.0
  C  C335  1  0.79706000  0.40386000  0.59701000  1.0
  C  C336  1  0.36453000  0.15452000  0.63555000  1.0
  C  C337  1  0.33512000  0.14666000  0.66491000  1.0
  C  C338  1  0.31559000  0.17846000  0.68449000  1.0
  C  C339  1  0.32521000  0.21844000  0.67495000  1.0
  C  C340  1  0.35450000  0.22651000  0.64570000  1.0
  C  C341  1  0.37422000  0.19484000  0.62596000  1.0
  C  C342  1  0.30470000  0.25237000  0.69540000  1.0
  C  C343  1  0.15476000  0.36459000  0.63543000  1.0
  C  C344  1  0.14705000  0.33535000  0.66499000  1.0
  C  C345  1  0.17895000  0.31582000  0.68441000  1.0
  C  C346  1  0.21887000  0.32525000  0.67453000  1.0
  C  C347  1  0.22680000  0.35434000  0.64505000  1.0
  C  C348  1  0.19505000  0.37407000  0.62546000  1.0
  C  C349  1  0.25296000  0.30486000  0.69500000  1.0
  C  C350  1  0.36472000  0.36438000  0.84533000  1.0
  C  C351  1  0.33551000  0.33481000  0.85309000  1.0
  C  C352  1  0.31600000  0.31530000  0.82124000  1.0
  C  C353  1  0.32544000  0.32512000  0.78129000  1.0
  C  C354  1  0.35451000  0.35460000  0.77331000  1.0
  C  C355  1  0.37424000  0.37425000  0.80502000  1.0
  C  C356  1  0.30481000  0.30484000  0.74728000  1.0
  C  C357  1  0.32200000  0.26971000  0.73036000  1.0
  C  C358  1  0.35940000  0.25185000  0.74968000  1.0
  C  C359  1  0.26991000  0.26977000  0.67787000  1.0
  C  C360  1  0.25075000  0.25201000  0.64036000  1.0
  C  C361  1  0.27010000  0.32236000  0.72981000  1.0
  C  C362  1  0.25121000  0.36015000  0.74724000  1.0
  C  C363  1  0.12300000  0.38451000  0.61570000  1.0
  C  C364  1  0.13094000  0.41385000  0.58605000  1.0
  C  C365  1  0.17139000  0.42278000  0.57664000  1.0
  C  C366  1  0.20298000  0.40315000  0.59608000  1.0
  C  C367  1  0.38439000  0.12284000  0.61565000  1.0
  C  C368  1  0.41389000  0.13089000  0.58617000  1.0
  C  C369  1  0.42304000  0.17138000  0.57713000  1.0
  C  C370  1  0.40345000  0.20289000  0.59676000  1.0
  C  C371  1  0.38456000  0.38424000  0.87706000  1.0
  C  C372  1  0.41389000  0.41389000  0.86908000  1.0
  C  C373  1  0.42288000  0.42319000  0.82861000  1.0
  C  C374  1  0.40330000  0.40363000  0.79705000  1.0
  C  C375  1  0.36437000  0.84543000  0.36468000  1.0
  C  C376  1  0.33461000  0.85326000  0.33566000  1.0
  C  C377  1  0.31517000  0.82144000  0.31603000  1.0
  C  C378  1  0.32523000  0.78149000  0.32517000  1.0
  C  C379  1  0.35488000  0.77344000  0.35405000  1.0
  C  C380  1  0.37451000  0.80512000  0.37385000  1.0
  C  C381  1  0.30477000  0.74755000  0.30472000  1.0
  C  C382  1  0.15478000  0.63577000  0.36496000  1.0
  C  C383  1  0.14709000  0.66586000  0.33626000  1.0
  C  C384  1  0.17899000  0.68518000  0.31663000  1.0
  C  C385  1  0.21890000  0.67467000  0.32544000  1.0
  C  C386  1  0.22680000  0.64469000  0.35401000  1.0
  C  C387  1  0.19505000  0.62518000  0.37381000  1.0
  C  C388  1  0.25299000  0.69508000  0.30500000  1.0
  C  C389  1  0.36519000  0.63609000  0.15466000  1.0
  C  C390  1  0.33688000  0.66653000  0.14691000  1.0
  C  C391  1  0.31715000  0.68584000  0.17875000  1.0
  C  C392  1  0.32548000  0.67498000  0.21867000  1.0
  C  C393  1  0.35362000  0.64460000  0.22664000  1.0
  C  C394  1  0.37356000  0.62513000  0.19494000  1.0
  C  C395  1  0.30481000  0.69523000  0.25268000  1.0
  C  C396  1  0.32205000  0.73029000  0.26971000  1.0
  C  C397  1  0.35951000  0.74812000  0.25048000  1.0
  C  C398  1  0.27002000  0.73008000  0.32226000  1.0
  C  C399  1  0.25102000  0.74761000  0.35997000  1.0
  C  C400  1  0.27006000  0.67772000  0.27008000  1.0
  C  C401  1  0.25100000  0.64015000  0.25240000  1.0
  C  C402  1  0.12301000  0.61613000  0.38494000  1.0
  C  C403  1  0.13094000  0.58595000  0.41376000  1.0
  C  C404  1  0.17138000  0.57590000  0.42205000  1.0
  C  C405  1  0.20297000  0.59526000  0.40233000  1.0
  C  C406  1  0.38413000  0.87713000  0.38465000  1.0
  C  C407  1  0.41397000  0.86910000  0.41378000  1.0
  C  C408  1  0.42357000  0.82863000  0.42241000  1.0
  C  C409  1  0.40409000  0.79710000  0.40270000  1.0
  C  C410  1  0.38527000  0.61646000  0.12295000  1.0
  C  C411  1  0.41372000  0.58595000  0.13092000  1.0
  C  C412  1  0.42157000  0.57556000  0.17136000  1.0
  C  C413  1  0.40174000  0.59489000  0.20290000  1.0
  C  C414  1  0.84548000  0.63551000  0.63550000  1.0
  C  C415  1  0.85333000  0.66483000  0.66495000  1.0
  C  C416  1  0.82152000  0.68441000  0.68448000  1.0
  C  C417  1  0.78155000  0.67492000  0.67480000  1.0
  C  C418  1  0.77348000  0.64574000  0.64545000  1.0
  C  C419  1  0.80515000  0.62598000  0.62575000  1.0
  C  C420  1  0.74762000  0.69537000  0.69530000  1.0
  C  C421  1  0.63529000  0.63554000  0.84523000  1.0
  C  C422  1  0.66431000  0.66531000  0.85294000  1.0
  C  C423  1  0.68389000  0.68468000  0.82104000  1.0
  C  C424  1  0.67471000  0.67454000  0.78112000  1.0
  C  C425  1  0.64583000  0.64485000  0.77320000  1.0
  C  C426  1  0.62607000  0.62530000  0.80495000  1.0
  C  C427  1  0.69511000  0.69499000  0.74703000  1.0
  C  C428  1  0.63562000  0.84532000  0.63527000  1.0
  C  C429  1  0.66515000  0.85308000  0.66453000  1.0
  C  C430  1  0.68467000  0.82122000  0.68402000  1.0
  C  C431  1  0.67489000  0.78127000  0.67452000  1.0
  C  C432  1  0.64546000  0.77330000  0.64540000  1.0
  C  C433  1  0.62580000  0.80502000  0.62569000  1.0
  C  C434  1  0.69515000  0.74726000  0.69516000  1.0
  C  C435  1  0.73029000  0.73033000  0.67798000  1.0
  C  C436  1  0.74815000  0.74963000  0.64058000  1.0
  C  C437  1  0.73021000  0.67785000  0.73009000  1.0
  C  C438  1  0.74796000  0.64035000  0.74927000  1.0
  C  C439  1  0.67761000  0.72979000  0.72987000  1.0
  C  C440  1  0.63979000  0.74720000  0.74870000  1.0
  C  C441  1  0.61534000  0.61585000  0.87700000  1.0
  C  C442  1  0.58620000  0.58599000  0.86906000  1.0
  C  C443  1  0.57755000  0.57630000  0.82861000  1.0
  C  C444  1  0.59722000  0.59570000  0.79702000  1.0
  C  C445  1  0.87716000  0.61559000  0.61566000  1.0
  C  C446  1  0.86911000  0.58616000  0.58611000  1.0
  C  C447  1  0.82862000  0.57717000  0.57690000  1.0
  C  C448  1  0.79711000  0.59683000  0.59647000  1.0
  C  C449  1  0.61575000  0.87705000  0.61546000  1.0
  C  C450  1  0.58613000  0.86907000  0.58609000  1.0
  C  C451  1  0.57689000  0.82861000  0.57704000  1.0
  C  C452  1  0.59646000  0.79705000  0.59659000  1.0
  C  C453  1  0.63552000  0.84545000  0.36455000  1.0
  C  C454  1  0.66490000  0.85329000  0.33515000  1.0
  C  C455  1  0.68445000  0.82148000  0.31562000  1.0
  C  C456  1  0.67489000  0.78151000  0.32525000  1.0
  C  C457  1  0.64565000  0.77345000  0.35454000  1.0
  C  C458  1  0.62591000  0.80513000  0.37424000  1.0
  C  C459  1  0.69533000  0.74757000  0.30476000  1.0
  C  C460  1  0.63527000  0.63555000  0.15478000  1.0
  C  C461  1  0.66448000  0.66515000  0.14708000  1.0
  C  C462  1  0.68398000  0.68459000  0.17898000  1.0
  C  C463  1  0.67454000  0.67469000  0.21891000  1.0
  C  C464  1  0.64545000  0.64521000  0.22682000  1.0
  C  C465  1  0.62577000  0.62559000  0.19506000  1.0
  C  C466  1  0.69499000  0.69509000  0.25300000  1.0
  C  C467  1  0.84533000  0.63592000  0.36503000  1.0
  C  C468  1  0.85308000  0.66606000  0.33640000  1.0
  C  C469  1  0.82123000  0.68543000  0.31675000  1.0
  C  C470  1  0.78130000  0.67492000  0.32548000  1.0
  C  C471  1  0.77333000  0.64486000  0.35396000  1.0
  C  C472  1  0.80504000  0.62533000  0.37381000  1.0
  C  C473  1  0.74729000  0.69518000  0.30483000  1.0
  C  C474  1  0.73030000  0.73027000  0.32206000  1.0
  C  C475  1  0.74953000  0.74806000  0.35953000  1.0
  C  C476  1  0.67779000  0.73014000  0.26998000  1.0
  C  C477  1  0.64020000  0.74780000  0.25089000  1.0
  C  C478  1  0.72984000  0.67766000  0.27010000  1.0
  C  C479  1  0.74740000  0.63997000  0.25114000  1.0
  C  C480  1  0.61542000  0.61577000  0.12301000  1.0
  C  C481  1  0.58612000  0.58607000  0.13094000  1.0
  C  C482  1  0.57717000  0.57666000  0.17140000  1.0
  C  C483  1  0.59674000  0.59617000  0.20299000  1.0
  C  C484  1  0.61562000  0.87714000  0.38439000  1.0
  C  C485  1  0.58614000  0.86910000  0.41389000  1.0
  C  C486  1  0.57708000  0.82862000  0.42304000  1.0
  C  C487  1  0.59671000  0.79710000  0.40347000  1.0
  C  C488  1  0.87705000  0.61621000  0.38501000  1.0
  C  C489  1  0.86908000  0.58600000  0.41378000  1.0
  C  C490  1  0.82863000  0.57599000  0.42204000  1.0
  C  C491  1  0.79707000  0.59540000  0.40230000  1.0
  C  C492  1  0.36425000  0.15455000  0.36477000  1.0
  C  C493  1  0.33443000  0.14672000  0.33583000  1.0
  C  C494  1  0.31498000  0.17853000  0.31620000  1.0
  C  C495  1  0.32509000  0.21850000  0.32526000  1.0
  C  C496  1  0.35482000  0.22655000  0.35407000  1.0
  C  C497  1  0.37445000  0.19487000  0.37388000  1.0
  C  C498  1  0.30466000  0.25243000  0.30477000  1.0
  C  C499  1  0.36450000  0.36468000  0.15479000  1.0
  C  C500  1  0.33481000  0.33557000  0.14709000  1.0
  C  C501  1  0.31542000  0.31601000  0.17899000  1.0
  C  C502  1  0.32547000  0.32530000  0.21891000  1.0
  C  C503  1  0.35507000  0.35428000  0.22682000  1.0
  C  C504  1  0.37463000  0.37402000  0.19506000  1.0
  C  C505  1  0.30502000  0.30491000  0.25300000  1.0
  C  C506  1  0.15469000  0.36415000  0.36499000  1.0
  C  C507  1  0.14694000  0.33409000  0.33627000  1.0
  C  C508  1  0.17879000  0.31470000  0.31665000  1.0
  C  C509  1  0.21873000  0.32512000  0.32549000  1.0
  C  C510  1  0.22669000  0.35510000  0.35405000  1.0
  C  C511  1  0.19498000  0.37464000  0.37388000  1.0
  C  C512  1  0.25274000  0.30487000  0.30485000  1.0
  C  C513  1  0.26972000  0.26978000  0.32210000  1.0
  C  C514  1  0.25054000  0.25206000  0.35963000  1.0
  C  C515  1  0.32217000  0.26983000  0.26996000  1.0
  C  C516  1  0.35965000  0.25204000  0.25077000  1.0
  C  C517  1  0.27019000  0.32238000  0.27013000  1.0
  C  C518  1  0.25270000  0.36012000  0.25122000  1.0
  C  C519  1  0.38421000  0.38460000  0.12301000  1.0
  C  C520  1  0.41399000  0.41383000  0.13095000  1.0
  C  C521  1  0.42356000  0.42261000  0.17139000  1.0
  C  C522  1  0.40414000  0.40296000  0.20299000  1.0
  C  C523  1  0.38403000  0.12286000  0.38474000  1.0
  C  C524  1  0.41395000  0.13090000  0.41380000  1.0
  C  C525  1  0.42360000  0.17137000  0.42236000  1.0
  C  C526  1  0.40410000  0.20290000  0.40265000  1.0
  C  C527  1  0.12295000  0.38387000  0.38495000  1.0
  C  C528  1  0.13092000  0.41399000  0.41380000  1.0
  C  C529  1  0.17138000  0.42392000  0.42216000  1.0
  C  C530  1  0.20294000  0.40450000  0.40246000  1.0
  C  C531  1  0.84550000  0.36465000  0.36432000  1.0
  C  C532  1  0.85335000  0.33573000  0.33448000  1.0
  C  C533  1  0.82156000  0.31605000  0.31504000  1.0
  C  C534  1  0.78159000  0.32504000  0.32518000  1.0
  C  C535  1  0.77351000  0.35382000  0.35494000  1.0
  C  C536  1  0.80517000  0.37368000  0.37456000  1.0
  C  C537  1  0.74767000  0.30459000  0.30467000  1.0
  C  C538  1  0.63567000  0.36482000  0.15475000  1.0
  C  C539  1  0.66545000  0.33580000  0.14703000  1.0
  C  C540  1  0.68486000  0.31624000  0.17892000  1.0
  C  C541  1  0.67476000  0.32544000  0.21885000  1.0
  C  C542  1  0.64509000  0.35433000  0.22678000  1.0
  C  C543  1  0.62549000  0.37407000  0.19503000  1.0
  C  C544  1  0.69517000  0.30496000  0.25292000  1.0
  C  C545  1  0.63574000  0.15463000  0.36478000  1.0
  C  C546  1  0.66546000  0.14684000  0.33573000  1.0
  C  C547  1  0.68495000  0.17868000  0.31616000  1.0
  C  C548  1  0.67497000  0.21863000  0.32539000  1.0
  C  C549  1  0.64532000  0.22664000  0.35430000  1.0
  C  C550  1  0.62569000  0.19494000  0.37408000  1.0
  C  C551  1  0.69525000  0.25263000  0.30473000  1.0
  C  C552  1  0.73039000  0.26957000  0.32192000  1.0
  C  C553  1  0.74834000  0.25019000  0.35923000  1.0
  C  C554  1  0.73022000  0.32215000  0.26991000  1.0
  C  C555  1  0.74785000  0.35978000  0.25086000  1.0
  C  C556  1  0.67774000  0.27009000  0.27001000  1.0
  C  C557  1  0.64007000  0.25253000  0.25102000  1.0
  C  C558  1  0.61592000  0.38472000  0.12299000  1.0
  C  C559  1  0.58604000  0.41384000  0.13094000  1.0
  C  C560  1  0.57641000  0.42253000  0.17139000  1.0
  C  C561  1  0.59588000  0.40290000  0.20297000  1.0
  C  C562  1  0.87717000  0.38470000  0.38405000  1.0
  C  C563  1  0.86911000  0.41374000  0.41398000  1.0
  C  C564  1  0.82863000  0.42222000  0.42367000  1.0
  C  C565  1  0.79712000  0.40244000  0.40422000  1.0
  C  C566  1  0.61592000  0.12291000  0.38468000  1.0
  C  C567  1  0.58610000  0.13092000  0.41385000  1.0
  C  C568  1  0.57663000  0.17139000  0.42263000  1.0
  C  C569  1  0.59616000  0.20293000  0.40299000  1.0
  O  O570  1  0.45988000  0.45988000  0.10820000  1.0
  O  O571  1  0.42537000  0.42537000  0.06130000  1.0
  O  O572  1  0.54012000  0.54012000  0.10820000  1.0
  O  O573  1  0.57463000  0.57463000  0.06130000  1.0
  O  O574  1  0.54012000  0.45988000  0.89180000  1.0
  O  O575  1  0.57463000  0.42537000  0.93870000  1.0
  O  O576  1  0.45988000  0.54012000  0.89180000  1.0
  O  O577  1  0.42537000  0.57463000  0.93870000  1.0
  O  O578  1  0.10820000  0.45988000  0.45988000  1.0
  O  O579  1  0.06130000  0.42537000  0.42537000  1.0
  O  O580  1  0.10820000  0.54012000  0.54012000  1.0
  O  O581  1  0.06130000  0.57463000  0.57463000  1.0
  O  O582  1  0.89180000  0.54012000  0.45988000  1.0
  O  O583  1  0.93870000  0.57463000  0.42537000  1.0
  O  O584  1  0.89180000  0.45988000  0.54012000  1.0
  O  O585  1  0.93870000  0.42537000  0.57463000  1.0
  O  O586  1  0.45988000  0.10820000  0.45988000  1.0
  O  O587  1  0.42537000  0.06130000  0.42537000  1.0
  O  O588  1  0.54012000  0.10820000  0.54012000  1.0
  O  O589  1  0.57463000  0.06130000  0.57463000  1.0
  O  O590  1  0.45988000  0.89180000  0.54012000  1.0
  O  O591  1  0.42537000  0.93870000  0.57463000  1.0
  O  O592  1  0.54012000  0.89180000  0.45988000  1.0
  O  O593  1  0.57463000  0.93870000  0.42537000  1.0
  O  O594  1  0.45988000  0.45988000  0.89180000  1.0
  O  O595  1  0.42537000  0.42537000  0.93870000  1.0
  O  O596  1  0.54012000  0.54012000  0.89180000  1.0
  O  O597  1  0.57463000  0.57463000  0.93870000  1.0
  O  O598  1  0.45988000  0.54012000  0.10820000  1.0
  O  O599  1  0.42537000  0.57463000  0.06130000  1.0
  O  O600  1  0.54012000  0.45988000  0.10820000  1.0
  O  O601  1  0.57463000  0.42537000  0.06130000  1.0
  O  O602  1  0.45988000  0.10820000  0.54012000  1.0
  O  O603  1  0.42537000  0.06130000  0.57463000  1.0
  O  O604  1  0.54012000  0.10820000  0.45988000  1.0
  O  O605  1  0.57463000  0.06130000  0.42537000  1.0
  O  O606  1  0.54012000  0.89180000  0.54012000  1.0
  O  O607  1  0.57463000  0.93870000  0.57463000  1.0
  O  O608  1  0.45988000  0.89180000  0.45988000  1.0
  O  O609  1  0.42537000  0.93870000  0.42537000  1.0
  O  O610  1  0.10820000  0.45988000  0.54012000  1.0
  O  O611  1  0.06130000  0.42537000  0.57463000  1.0
  O  O612  1  0.10820000  0.54012000  0.45988000  1.0
  O  O613  1  0.06130000  0.57463000  0.42537000  1.0
  O  O614  1  0.89180000  0.45988000  0.45988000  1.0
  O  O615  1  0.93870000  0.42537000  0.42537000  1.0
  O  O616  1  0.89180000  0.54012000  0.54012000  1.0
  O  O617  1  0.93870000  0.57463000  0.57463000  1.0
  O  O618  1  0.50000000  0.44626000  0.96335000  1.0
  O  O619  1  0.50000000  0.55374000  0.96335000  1.0
  O  O620  1  0.50000000  0.44626000  0.03665000  1.0
  O  O621  1  0.50000000  0.55374000  0.03665000  1.0
  O  O622  1  0.96335000  0.50000000  0.44626000  1.0
  O  O623  1  0.96335000  0.50000000  0.55374000  1.0
  O  O624  1  0.03665000  0.50000000  0.44626000  1.0
  O  O625  1  0.03665000  0.50000000  0.55374000  1.0
  O  O626  1  0.44626000  0.96335000  0.50000000  1.0
  O  O627  1  0.55374000  0.96335000  0.50000000  1.0
  O  O628  1  0.44626000  0.03665000  0.50000000  1.0
  O  O629  1  0.55374000  0.03665000  0.50000000  1.0
  O  O630  1  0.44626000  0.50000000  0.03665000  1.0
  O  O631  1  0.55374000  0.50000000  0.03665000  1.0
  O  O632  1  0.44626000  0.50000000  0.96335000  1.0
  O  O633  1  0.55374000  0.50000000  0.96335000  1.0
  O  O634  1  0.50000000  0.96335000  0.55374000  1.0
  O  O635  1  0.50000000  0.96335000  0.44626000  1.0
  O  O636  1  0.50000000  0.03665000  0.55374000  1.0
  O  O637  1  0.50000000  0.03665000  0.44626000  1.0
  O  O638  1  0.96335000  0.44626000  0.50000000  1.0
  O  O639  1  0.96335000  0.55374000  0.50000000  1.0
  O  O640  1  0.03665000  0.44626000  0.50000000  1.0
  O  O641  1  0.03665000  0.55374000  0.50000000  1.0
