# generated using pymatgen
data_Mn3H8(C6O5)4
_symmetry_space_group_name_H-M   'P 1'
_cell_length_a   9.40780000
_cell_length_b   11.65380000
_cell_length_c   32.66210000
_cell_angle_alpha   90.00000000
_cell_angle_beta   90.00000000
_cell_angle_gamma   90.00000000
_symmetry_Int_Tables_number   1
_chemical_formula_structural   Mn3H8(C6O5)4
_chemical_formula_sum   'Mn12 H32 C96 O80'
_cell_volume   3580.96223434
_cell_formula_units_Z   4
loop_
 _symmetry_equiv_pos_site_id
 _symmetry_equiv_pos_as_xyz
  1  'x, y, z'
loop_
 _atom_site_type_symbol
 _atom_site_label
 _atom_site_symmetry_multiplicity
 _atom_site_fract_x
 _atom_site_fract_y
 _atom_site_fract_z
 _atom_site_occupancy
  Mn  Mn0  1  0.19316000  0.09382000  0.63759000  1.0
  Mn  Mn1  1  0.24042000  0.71462000  0.59962000  1.0
  Mn  Mn2  1  0.21617000  0.40878000  0.62589000  1.0
  Mn  Mn3  1  0.30684000  0.90618000  0.13759000  1.0
  Mn  Mn4  1  0.25958000  0.28538000  0.09962000  1.0
  Mn  Mn5  1  0.28383000  0.59122000  0.12589000  1.0
  Mn  Mn6  1  0.80684000  0.59382000  0.86241000  1.0
  Mn  Mn7  1  0.75958000  0.21462000  0.90038000  1.0
  Mn  Mn8  1  0.78383000  0.90878000  0.87411000  1.0
  Mn  Mn9  1  0.69316000  0.40618000  0.36241000  1.0
  Mn  Mn10  1  0.74042000  0.78538000  0.40038000  1.0
  Mn  Mn11  1  0.71617000  0.09122000  0.37411000  1.0
  H  H12  1  0.52040000  0.38860000  0.56660000  1.0
  H  H13  1  0.78790000  0.40970000  0.55990000  1.0
  H  H14  1  0.91610000  0.45090000  0.68120000  1.0
  H  H15  1  0.65020000  0.42410000  0.69020000  1.0
  H  H16  1  0.57190000  0.20370000  0.48280000  1.0
  H  H17  1  0.36500000  0.19060000  0.53450000  1.0
  H  H18  1  0.97030000  0.57780000  0.75950000  1.0
  H  H19  1  0.13670000  0.61600000  0.69990000  1.0
  H  H20  1  0.97960000  0.61140000  0.06660000  1.0
  H  H21  1  0.71210000  0.59030000  0.05990000  1.0
  H  H22  1  0.58390000  0.54910000  0.18120000  1.0
  H  H23  1  0.84980000  0.57590000  0.19020000  1.0
  H  H24  1  0.92810000  0.79630000  0.98280000  1.0
  H  H25  1  0.13500000  0.80940000  0.03450000  1.0
  H  H26  1  0.52970000  0.42220000  0.25950000  1.0
  H  H27  1  0.36330000  0.38400000  0.19990000  1.0
  H  H28  1  0.47960000  0.88860000  0.93340000  1.0
  H  H29  1  0.21210000  0.90970000  0.94010000  1.0
  H  H30  1  0.08390000  0.95090000  0.81880000  1.0
  H  H31  1  0.34980000  0.92410000  0.80980000  1.0
  H  H32  1  0.42810000  0.70370000  0.01720000  1.0
  H  H33  1  0.63500000  0.69060000  0.96550000  1.0
  H  H34  1  0.02970000  0.07780000  0.74050000  1.0
  H  H35  1  0.86330000  0.11600000  0.80010000  1.0
  H  H36  1  0.02040000  0.11140000  0.43340000  1.0
  H  H37  1  0.28790000  0.09030000  0.44010000  1.0
  H  H38  1  0.41610000  0.04910000  0.31880000  1.0
  H  H39  1  0.15020000  0.07590000  0.30980000  1.0
  H  H40  1  0.07190000  0.29630000  0.51720000  1.0
  H  H41  1  0.86500000  0.30940000  0.46550000  1.0
  H  H42  1  0.47030000  0.92220000  0.24050000  1.0
  H  H43  1  0.63670000  0.88400000  0.30010000  1.0
  C  C44  1  0.43800000  0.19680000  0.61850000  1.0
  C  C45  1  0.56920000  0.25320000  0.60470000  1.0
  C  C46  1  0.59080000  0.34270000  0.57950000  1.0
  C  C47  1  0.73920000  0.35460000  0.57610000  1.0
  C  C48  1  0.80030000  0.27350000  0.59990000  1.0
  C  C49  1  0.94920000  0.25020000  0.61020000  1.0
  C  C50  1  0.98950000  0.62600000  0.61970000  1.0
  C  C51  1  0.86170000  0.57460000  0.63840000  1.0
  C  C52  1  0.84320000  0.49120000  0.66710000  1.0
  C  C53  1  0.69570000  0.47590000  0.67200000  1.0
  C  C54  1  0.63060000  0.54980000  0.64560000  1.0
  C  C55  1  0.48090000  0.56670000  0.63480000  1.0
  C  C56  1  0.69030000  0.97570000  0.46080000  1.0
  C  C57  1  0.58410000  0.02950000  0.48870000  1.0
  C  C58  1  0.53620000  0.13560000  0.49510000  1.0
  C  C59  1  0.42040000  0.12890000  0.52410000  1.0
  C  C60  1  0.40770000  0.01710000  0.53340000  1.0
  C  C61  1  0.31150000  0.95250000  0.56040000  1.0
  C  C62  1  0.85280000  0.77680000  0.79650000  1.0
  C  C63  1  0.94490000  0.75050000  0.76140000  1.0
  C  C64  1  0.99330000  0.65090000  0.74840000  1.0
  C  C65  1  0.08560000  0.67200000  0.71510000  1.0
  C  C66  1  0.08750000  0.78620000  0.70900000  1.0
  C  C67  1  0.15420000  0.85790000  0.67730000  1.0
  C  C68  1  0.06200000  0.80320000  0.11850000  1.0
  C  C69  1  0.93080000  0.74680000  0.10470000  1.0
  C  C70  1  0.90920000  0.65730000  0.07950000  1.0
  C  C71  1  0.76080000  0.64540000  0.07610000  1.0
  C  C72  1  0.69970000  0.72650000  0.09990000  1.0
  C  C73  1  0.55080000  0.74980000  0.11020000  1.0
  C  C74  1  0.51050000  0.37400000  0.11970000  1.0
  C  C75  1  0.63830000  0.42540000  0.13840000  1.0
  C  C76  1  0.65680000  0.50880000  0.16710000  1.0
  C  C77  1  0.80430000  0.52410000  0.17200000  1.0
  C  C78  1  0.86940000  0.45020000  0.14560000  1.0
  C  C79  1  0.01910000  0.43330000  0.13480000  1.0
  C  C80  1  0.80970000  0.02430000  0.96080000  1.0
  C  C81  1  0.91590000  0.97050000  0.98870000  1.0
  C  C82  1  0.96380000  0.86440000  0.99510000  1.0
  C  C83  1  0.07960000  0.87110000  0.02410000  1.0
  C  C84  1  0.09230000  0.98290000  0.03340000  1.0
  C  C85  1  0.18850000  0.04750000  0.06040000  1.0
  C  C86  1  0.64720000  0.22320000  0.29650000  1.0
  C  C87  1  0.55510000  0.24950000  0.26140000  1.0
  C  C88  1  0.50670000  0.34910000  0.24840000  1.0
  C  C89  1  0.41440000  0.32800000  0.21510000  1.0
  C  C90  1  0.41250000  0.21380000  0.20900000  1.0
  C  C91  1  0.34580000  0.14210000  0.17730000  1.0
  C  C92  1  0.56200000  0.69680000  0.88150000  1.0
  C  C93  1  0.43080000  0.75320000  0.89530000  1.0
  C  C94  1  0.40920000  0.84270000  0.92050000  1.0
  C  C95  1  0.26080000  0.85460000  0.92390000  1.0
  C  C96  1  0.19970000  0.77350000  0.90010000  1.0
  C  C97  1  0.05080000  0.75020000  0.88980000  1.0
  C  C98  1  0.01050000  0.12600000  0.88030000  1.0
  C  C99  1  0.13830000  0.07460000  0.86160000  1.0
  C  C100  1  0.15680000  0.99120000  0.83290000  1.0
  C  C101  1  0.30430000  0.97590000  0.82800000  1.0
  C  C102  1  0.36940000  0.04980000  0.85440000  1.0
  C  C103  1  0.51910000  0.06670000  0.86520000  1.0
  C  C104  1  0.30970000  0.47570000  0.03920000  1.0
  C  C105  1  0.41590000  0.52950000  0.01130000  1.0
  C  C106  1  0.46380000  0.63560000  0.00490000  1.0
  C  C107  1  0.57960000  0.62890000  0.97590000  1.0
  C  C108  1  0.59230000  0.51710000  0.96660000  1.0
  C  C109  1  0.68850000  0.45250000  0.93960000  1.0
  C  C110  1  0.14720000  0.27680000  0.70350000  1.0
  C  C111  1  0.05510000  0.25050000  0.73860000  1.0
  C  C112  1  0.00670000  0.15090000  0.75160000  1.0
  C  C113  1  0.91440000  0.17200000  0.78490000  1.0
  C  C114  1  0.91250000  0.28620000  0.79100000  1.0
  C  C115  1  0.84580000  0.35790000  0.82270000  1.0
  C  C116  1  0.93800000  0.30320000  0.38150000  1.0
  C  C117  1  0.06920000  0.24680000  0.39530000  1.0
  C  C118  1  0.09080000  0.15730000  0.42050000  1.0
  C  C119  1  0.23920000  0.14540000  0.42390000  1.0
  C  C120  1  0.30030000  0.22650000  0.40010000  1.0
  C  C121  1  0.44920000  0.24980000  0.38980000  1.0
  C  C122  1  0.48950000  0.87400000  0.38030000  1.0
  C  C123  1  0.36170000  0.92540000  0.36160000  1.0
  C  C124  1  0.34320000  0.00880000  0.33290000  1.0
  C  C125  1  0.19570000  0.02410000  0.32800000  1.0
  C  C126  1  0.13060000  0.95020000  0.35440000  1.0
  C  C127  1  0.98090000  0.93330000  0.36520000  1.0
  C  C128  1  0.19030000  0.52430000  0.53920000  1.0
  C  C129  1  0.08410000  0.47050000  0.51130000  1.0
  C  C130  1  0.03620000  0.36440000  0.50490000  1.0
  C  C131  1  0.92040000  0.37110000  0.47590000  1.0
  C  C132  1  0.90770000  0.48290000  0.46660000  1.0
  C  C133  1  0.81150000  0.54750000  0.43960000  1.0
  C  C134  1  0.35280000  0.72320000  0.20350000  1.0
  C  C135  1  0.44490000  0.74950000  0.23860000  1.0
  C  C136  1  0.49330000  0.84910000  0.25160000  1.0
  C  C137  1  0.58560000  0.82800000  0.28490000  1.0
  C  C138  1  0.58750000  0.71380000  0.29100000  1.0
  C  C139  1  0.65420000  0.64210000  0.32270000  1.0
  O  O140  1  0.32190000  0.24650000  0.60988000  1.0
  O  O141  1  0.44170000  0.10080000  0.63596000  1.0
  O  O142  1  0.69570000  0.20610000  0.61740000  1.0
  O  O143  1  0.03260000  0.32940000  0.60074000  1.0
  O  O144  1  0.98130000  0.15590000  0.62660000  1.0
  O  O145  1  0.10560000  0.57580000  0.62643000  1.0
  O  O146  1  0.98210000  0.71880000  0.60020000  1.0
  O  O147  1  0.73140000  0.61330000  0.62468000  1.0
  O  O148  1  0.39680000  0.49300000  0.65011000  1.0
  O  O149  1  0.44730000  0.64860000  0.61215000  1.0
  O  O150  1  0.69840000  0.86920000  0.46008000  1.0
  O  O151  1  0.76270000  0.04540000  0.43962000  1.0
  O  O152  1  0.50620000  0.95320000  0.51221000  1.0
  O  O153  1  0.21730000  0.00630000  0.58000000  1.0
  O  O154  1  0.32520000  0.84410000  0.56030000  1.0
  O  O155  1  0.85400000  0.87760000  0.81171000  1.0
  O  O156  1  0.77930000  0.69500000  0.80890000  1.0
  O  O157  1  0.00080000  0.83930000  0.73797000  1.0
  O  O158  1  0.23930000  0.80990000  0.65389000  1.0
  O  O159  1  0.12210000  0.96320000  0.67693000  1.0
  O  O160  1  0.17810000  0.75350000  0.10988000  1.0
  O  O161  1  0.05830000  0.89920000  0.13596000  1.0
  O  O162  1  0.80430000  0.79390000  0.11740000  1.0
  O  O163  1  0.46740000  0.67060000  0.10074000  1.0
  O  O164  1  0.51870000  0.84410000  0.12660000  1.0
  O  O165  1  0.39440000  0.42420000  0.12643000  1.0
  O  O166  1  0.51790000  0.28120000  0.10020000  1.0
  O  O167  1  0.76860000  0.38670000  0.12468000  1.0
  O  O168  1  0.10320000  0.50700000  0.15011000  1.0
  O  O169  1  0.05270000  0.35140000  0.11215000  1.0
  O  O170  1  0.80160000  0.13080000  0.96008000  1.0
  O  O171  1  0.73730000  0.95460000  0.93962000  1.0
  O  O172  1  0.99380000  0.04680000  0.01221000  1.0
  O  O173  1  0.28270000  0.99370000  0.08000000  1.0
  O  O174  1  0.17480000  0.15590000  0.06030000  1.0
  O  O175  1  0.64600000  0.12240000  0.31171000  1.0
  O  O176  1  0.72070000  0.30500000  0.30890000  1.0
  O  O177  1  0.49920000  0.16070000  0.23797000  1.0
  O  O178  1  0.26070000  0.19010000  0.15389000  1.0
  O  O179  1  0.37790000  0.03680000  0.17693000  1.0
  O  O180  1  0.67810000  0.74650000  0.89012000  1.0
  O  O181  1  0.55830000  0.60080000  0.86404000  1.0
  O  O182  1  0.30430000  0.70610000  0.88260000  1.0
  O  O183  1  0.96740000  0.82940000  0.89926000  1.0
  O  O184  1  0.01870000  0.65590000  0.87340000  1.0
  O  O185  1  0.89440000  0.07580000  0.87357000  1.0
  O  O186  1  0.01790000  0.21880000  0.89980000  1.0
  O  O187  1  0.26860000  0.11330000  0.87532000  1.0
  O  O188  1  0.60320000  0.99300000  0.84989000  1.0
  O  O189  1  0.55270000  0.14860000  0.88785000  1.0
  O  O190  1  0.30160000  0.36920000  0.03992000  1.0
  O  O191  1  0.23730000  0.54540000  0.06038000  1.0
  O  O192  1  0.49380000  0.45320000  0.98779000  1.0
  O  O193  1  0.78270000  0.50630000  0.92000000  1.0
  O  O194  1  0.67480000  0.34410000  0.93970000  1.0
  O  O195  1  0.14600000  0.37760000  0.68829000  1.0
  O  O196  1  0.22070000  0.19500000  0.69110000  1.0
  O  O197  1  0.99920000  0.33930000  0.76203000  1.0
  O  O198  1  0.76070000  0.30990000  0.84611000  1.0
  O  O199  1  0.87790000  0.46320000  0.82307000  1.0
  O  O200  1  0.82190000  0.25350000  0.39012000  1.0
  O  O201  1  0.94170000  0.39920000  0.36404000  1.0
  O  O202  1  0.19570000  0.29390000  0.38260000  1.0
  O  O203  1  0.53260000  0.17060000  0.39926000  1.0
  O  O204  1  0.48130000  0.34410000  0.37340000  1.0
  O  O205  1  0.60560000  0.92420000  0.37357000  1.0
  O  O206  1  0.48210000  0.78120000  0.39980000  1.0
  O  O207  1  0.23140000  0.88670000  0.37532000  1.0
  O  O208  1  0.89680000  0.00700000  0.34989000  1.0
  O  O209  1  0.94730000  0.85140000  0.38785000  1.0
  O  O210  1  0.19840000  0.63080000  0.53992000  1.0
  O  O211  1  0.26270000  0.45460000  0.56038000  1.0
  O  O212  1  0.00620000  0.54680000  0.48779000  1.0
  O  O213  1  0.71730000  0.49370000  0.42000000  1.0
  O  O214  1  0.82520000  0.65590000  0.43970000  1.0
  O  O215  1  0.35400000  0.62240000  0.18829000  1.0
  O  O216  1  0.27930000  0.80500000  0.19110000  1.0
  O  O217  1  0.50080000  0.66070000  0.26203000  1.0
  O  O218  1  0.73930000  0.69010000  0.34611000  1.0
  O  O219  1  0.62210000  0.53680000  0.32307000  1.0
