# generated using pymatgen
data_ZnHC5O4
_symmetry_space_group_name_H-M   'P 1'
_cell_length_a   19.05300000
_cell_length_b   18.80100000
_cell_length_c   22.94340000
_cell_angle_alpha   90.00000000
_cell_angle_beta   90.00000000
_cell_angle_gamma   90.00000000
_symmetry_Int_Tables_number   1
_chemical_formula_structural   ZnHC5O4
_chemical_formula_sum   'Zn32 H32 C160 O128'
_cell_volume   8218.68042436
_cell_formula_units_Z   32
loop_
 _symmetry_equiv_pos_site_id
 _symmetry_equiv_pos_as_xyz
  1  'x, y, z'
loop_
 _atom_site_type_symbol
 _atom_site_label
 _atom_site_symmetry_multiplicity
 _atom_site_fract_x
 _atom_site_fract_y
 _atom_site_fract_z
 _atom_site_occupancy
  Zn  Zn0  1  0.35443000  0.76280000  0.21658000  1.0
  Zn  Zn1  1  0.22837000  0.73772000  0.37421000  1.0
  Zn  Zn2  1  0.22864000  0.73381000  0.12111000  1.0
  Zn  Zn3  1  0.25461000  0.10766000  0.46896000  1.0
  Zn  Zn4  1  0.14557000  0.23720000  0.71658000  1.0
  Zn  Zn5  1  0.27163000  0.26228000  0.87421000  1.0
  Zn  Zn6  1  0.27136000  0.26619000  0.62111000  1.0
  Zn  Zn7  1  0.24539000  0.89234000  0.96896000  1.0
  Zn  Zn8  1  0.64557000  0.26280000  0.28342000  1.0
  Zn  Zn9  1  0.77163000  0.23772000  0.12579000  1.0
  Zn  Zn10  1  0.77136000  0.23381000  0.37889000  1.0
  Zn  Zn11  1  0.74539000  0.60766000  0.03104000  1.0
  Zn  Zn12  1  0.85443000  0.73720000  0.78342000  1.0
  Zn  Zn13  1  0.72837000  0.76228000  0.62579000  1.0
  Zn  Zn14  1  0.72864000  0.76619000  0.87889000  1.0
  Zn  Zn15  1  0.75461000  0.39234000  0.53104000  1.0
  Zn  Zn16  1  0.64557000  0.23720000  0.78342000  1.0
  Zn  Zn17  1  0.77163000  0.26228000  0.62579000  1.0
  Zn  Zn18  1  0.77136000  0.26619000  0.87889000  1.0
  Zn  Zn19  1  0.74539000  0.89234000  0.53104000  1.0
  Zn  Zn20  1  0.85443000  0.76280000  0.28342000  1.0
  Zn  Zn21  1  0.72837000  0.73772000  0.12579000  1.0
  Zn  Zn22  1  0.72864000  0.73381000  0.37889000  1.0
  Zn  Zn23  1  0.75461000  0.10766000  0.03104000  1.0
  Zn  Zn24  1  0.35443000  0.73720000  0.71658000  1.0
  Zn  Zn25  1  0.22837000  0.76228000  0.87421000  1.0
  Zn  Zn26  1  0.22864000  0.76619000  0.62111000  1.0
  Zn  Zn27  1  0.25461000  0.39234000  0.96896000  1.0
  Zn  Zn28  1  0.14557000  0.26280000  0.21658000  1.0
  Zn  Zn29  1  0.27163000  0.23772000  0.37421000  1.0
  Zn  Zn30  1  0.27136000  0.23381000  0.12111000  1.0
  Zn  Zn31  1  0.24539000  0.60766000  0.46896000  1.0
  H  H32  1  0.25890000  0.95700000  0.34840000  1.0
  H  H33  1  0.25170000  0.00640000  0.15260000  1.0
  H  H34  1  0.50640000  0.70420000  0.09280000  1.0
  H  H35  1  0.45790000  0.74560000  0.89980000  1.0
  H  H36  1  0.24110000  0.04300000  0.84840000  1.0
  H  H37  1  0.24830000  0.99360000  0.65260000  1.0
  H  H38  1  0.99360000  0.29580000  0.59280000  1.0
  H  H39  1  0.04210000  0.25440000  0.39980000  1.0
  H  H40  1  0.74110000  0.45700000  0.15160000  1.0
  H  H41  1  0.74830000  0.50640000  0.34740000  1.0
  H  H42  1  0.49360000  0.20420000  0.40720000  1.0
  H  H43  1  0.54210000  0.24560000  0.60020000  1.0
  H  H44  1  0.75890000  0.54300000  0.65160000  1.0
  H  H45  1  0.75170000  0.49360000  0.84740000  1.0
  H  H46  1  0.00640000  0.79580000  0.90720000  1.0
  H  H47  1  0.95790000  0.75440000  0.10020000  1.0
  H  H48  1  0.74110000  0.04300000  0.65160000  1.0
  H  H49  1  0.74830000  0.99360000  0.84740000  1.0
  H  H50  1  0.49360000  0.29580000  0.90720000  1.0
  H  H51  1  0.54210000  0.25440000  0.10020000  1.0
  H  H52  1  0.75890000  0.95700000  0.15160000  1.0
  H  H53  1  0.75170000  0.00640000  0.34740000  1.0
  H  H54  1  0.00640000  0.70420000  0.40720000  1.0
  H  H55  1  0.95790000  0.74560000  0.60020000  1.0
  H  H56  1  0.25890000  0.54300000  0.84840000  1.0
  H  H57  1  0.25170000  0.49360000  0.65260000  1.0
  H  H58  1  0.50640000  0.79580000  0.59280000  1.0
  H  H59  1  0.45790000  0.75440000  0.39980000  1.0
  H  H60  1  0.24110000  0.45700000  0.34840000  1.0
  H  H61  1  0.24830000  0.50640000  0.15260000  1.0
  H  H62  1  0.99360000  0.20420000  0.09280000  1.0
  H  H63  1  0.04210000  0.24560000  0.89980000  1.0
  C  C64  1  0.25610000  0.91020000  0.26930000  1.0
  C  C65  1  0.25670000  0.96690000  0.30870000  1.0
  C  C66  1  0.25410000  0.03770000  0.29070000  1.0
  C  C67  1  0.25090000  0.05260000  0.23150000  1.0
  C  C68  1  0.25210000  0.99620000  0.19220000  1.0
  C  C69  1  0.25380000  0.92560000  0.20950000  1.0
  C  C70  1  0.25570000  0.83810000  0.29790000  1.0
  C  C71  1  0.25760000  0.09300000  0.33860000  1.0
  C  C72  1  0.23960000  0.12700000  0.20670000  1.0
  C  C73  1  0.24950000  0.86940000  0.16280000  1.0
  C  C74  1  0.42800000  0.72850000  0.03860000  1.0
  C  C75  1  0.49610000  0.71350000  0.05390000  1.0
  C  C76  1  0.54980000  0.71160000  0.01360000  1.0
  C  C77  1  0.53560000  0.72530000  0.95520000  1.0
  C  C78  1  0.46790000  0.73910000  0.93910000  1.0
  C  C79  1  0.41370000  0.74380000  0.97890000  1.0
  C  C80  1  0.37130000  0.73000000  0.08370000  1.0
  C  C81  1  0.62190000  0.69530000  0.03560000  1.0
  C  C82  1  0.59430000  0.73310000  0.91050000  1.0
  C  C83  1  0.34370000  0.77360000  0.95970000  1.0
  C  C84  1  0.24390000  0.08980000  0.76930000  1.0
  C  C85  1  0.24330000  0.03310000  0.80870000  1.0
  C  C86  1  0.24590000  0.96230000  0.79070000  1.0
  C  C87  1  0.24910000  0.94740000  0.73150000  1.0
  C  C88  1  0.24790000  0.00380000  0.69220000  1.0
  C  C89  1  0.24620000  0.07440000  0.70950000  1.0
  C  C90  1  0.24430000  0.16190000  0.79790000  1.0
  C  C91  1  0.24240000  0.90700000  0.83860000  1.0
  C  C92  1  0.26040000  0.87300000  0.70670000  1.0
  C  C93  1  0.25050000  0.13060000  0.66280000  1.0
  C  C94  1  0.07200000  0.27150000  0.53860000  1.0
  C  C95  1  0.00390000  0.28650000  0.55390000  1.0
  C  C96  1  0.95020000  0.28840000  0.51360000  1.0
  C  C97  1  0.96440000  0.27470000  0.45520000  1.0
  C  C98  1  0.03210000  0.26090000  0.43910000  1.0
  C  C99  1  0.08630000  0.25620000  0.47890000  1.0
  C  C100  1  0.12870000  0.27000000  0.58370000  1.0
  C  C101  1  0.87810000  0.30470000  0.53560000  1.0
  C  C102  1  0.90570000  0.26690000  0.41050000  1.0
  C  C103  1  0.15630000  0.22640000  0.45970000  1.0
  C  C104  1  0.74390000  0.41020000  0.23070000  1.0
  C  C105  1  0.74330000  0.46690000  0.19130000  1.0
  C  C106  1  0.74590000  0.53770000  0.20930000  1.0
  C  C107  1  0.74910000  0.55260000  0.26850000  1.0
  C  C108  1  0.74790000  0.49620000  0.30780000  1.0
  C  C109  1  0.74620000  0.42560000  0.29050000  1.0
  C  C110  1  0.74430000  0.33810000  0.20210000  1.0
  C  C111  1  0.74240000  0.59300000  0.16140000  1.0
  C  C112  1  0.76040000  0.62700000  0.29330000  1.0
  C  C113  1  0.75050000  0.36940000  0.33720000  1.0
  C  C114  1  0.57200000  0.22850000  0.46140000  1.0
  C  C115  1  0.50390000  0.21350000  0.44610000  1.0
  C  C116  1  0.45020000  0.21160000  0.48640000  1.0
  C  C117  1  0.46440000  0.22530000  0.54480000  1.0
  C  C118  1  0.53210000  0.23910000  0.56090000  1.0
  C  C119  1  0.58630000  0.24380000  0.52110000  1.0
  C  C120  1  0.62870000  0.23000000  0.41630000  1.0
  C  C121  1  0.37810000  0.19530000  0.46440000  1.0
  C  C122  1  0.40570000  0.23310000  0.58950000  1.0
  C  C123  1  0.65630000  0.27360000  0.54030000  1.0
  C  C124  1  0.75610000  0.58980000  0.73070000  1.0
  C  C125  1  0.75670000  0.53310000  0.69130000  1.0
  C  C126  1  0.75410000  0.46230000  0.70930000  1.0
  C  C127  1  0.75090000  0.44740000  0.76850000  1.0
  C  C128  1  0.75210000  0.50380000  0.80780000  1.0
  C  C129  1  0.75380000  0.57440000  0.79050000  1.0
  C  C130  1  0.75570000  0.66190000  0.70210000  1.0
  C  C131  1  0.75760000  0.40700000  0.66140000  1.0
  C  C132  1  0.73960000  0.37300000  0.79330000  1.0
  C  C133  1  0.74950000  0.63060000  0.83720000  1.0
  C  C134  1  0.92800000  0.77150000  0.96140000  1.0
  C  C135  1  0.99610000  0.78650000  0.94610000  1.0
  C  C136  1  0.04980000  0.78840000  0.98640000  1.0
  C  C137  1  0.03560000  0.77470000  0.04480000  1.0
  C  C138  1  0.96790000  0.76090000  0.06090000  1.0
  C  C139  1  0.91370000  0.75620000  0.02110000  1.0
  C  C140  1  0.87130000  0.77000000  0.91630000  1.0
  C  C141  1  0.12190000  0.80470000  0.96440000  1.0
  C  C142  1  0.09430000  0.76690000  0.08950000  1.0
  C  C143  1  0.84370000  0.72640000  0.04030000  1.0
  C  C144  1  0.74390000  0.08980000  0.73070000  1.0
  C  C145  1  0.74330000  0.03310000  0.69130000  1.0
  C  C146  1  0.74590000  0.96230000  0.70930000  1.0
  C  C147  1  0.74910000  0.94740000  0.76850000  1.0
  C  C148  1  0.74790000  0.00380000  0.80780000  1.0
  C  C149  1  0.74620000  0.07440000  0.79050000  1.0
  C  C150  1  0.74430000  0.16190000  0.70210000  1.0
  C  C151  1  0.74240000  0.90700000  0.66140000  1.0
  C  C152  1  0.76040000  0.87300000  0.79330000  1.0
  C  C153  1  0.75050000  0.13060000  0.83720000  1.0
  C  C154  1  0.57200000  0.27150000  0.96140000  1.0
  C  C155  1  0.50390000  0.28650000  0.94610000  1.0
  C  C156  1  0.45020000  0.28840000  0.98640000  1.0
  C  C157  1  0.46440000  0.27470000  0.04480000  1.0
  C  C158  1  0.53210000  0.26090000  0.06090000  1.0
  C  C159  1  0.58630000  0.25620000  0.02110000  1.0
  C  C160  1  0.62870000  0.27000000  0.91630000  1.0
  C  C161  1  0.37810000  0.30470000  0.96440000  1.0
  C  C162  1  0.40570000  0.26690000  0.08950000  1.0
  C  C163  1  0.65630000  0.22640000  0.04030000  1.0
  C  C164  1  0.75610000  0.91020000  0.23070000  1.0
  C  C165  1  0.75670000  0.96690000  0.19130000  1.0
  C  C166  1  0.75410000  0.03770000  0.20930000  1.0
  C  C167  1  0.75090000  0.05260000  0.26850000  1.0
  C  C168  1  0.75210000  0.99620000  0.30780000  1.0
  C  C169  1  0.75380000  0.92560000  0.29050000  1.0
  C  C170  1  0.75570000  0.83810000  0.20210000  1.0
  C  C171  1  0.75760000  0.09300000  0.16140000  1.0
  C  C172  1  0.73960000  0.12700000  0.29330000  1.0
  C  C173  1  0.74950000  0.86940000  0.33720000  1.0
  C  C174  1  0.92800000  0.72850000  0.46140000  1.0
  C  C175  1  0.99610000  0.71350000  0.44610000  1.0
  C  C176  1  0.04980000  0.71160000  0.48640000  1.0
  C  C177  1  0.03560000  0.72530000  0.54480000  1.0
  C  C178  1  0.96790000  0.73910000  0.56090000  1.0
  C  C179  1  0.91370000  0.74380000  0.52110000  1.0
  C  C180  1  0.87130000  0.73000000  0.41630000  1.0
  C  C181  1  0.12190000  0.69530000  0.46440000  1.0
  C  C182  1  0.09430000  0.73310000  0.58950000  1.0
  C  C183  1  0.84370000  0.77360000  0.54030000  1.0
  C  C184  1  0.25610000  0.58980000  0.76930000  1.0
  C  C185  1  0.25670000  0.53310000  0.80870000  1.0
  C  C186  1  0.25410000  0.46230000  0.79070000  1.0
  C  C187  1  0.25090000  0.44740000  0.73150000  1.0
  C  C188  1  0.25210000  0.50380000  0.69220000  1.0
  C  C189  1  0.25380000  0.57440000  0.70950000  1.0
  C  C190  1  0.25570000  0.66190000  0.79790000  1.0
  C  C191  1  0.25760000  0.40700000  0.83860000  1.0
  C  C192  1  0.23960000  0.37300000  0.70670000  1.0
  C  C193  1  0.24950000  0.63060000  0.66280000  1.0
  C  C194  1  0.42800000  0.77150000  0.53860000  1.0
  C  C195  1  0.49610000  0.78650000  0.55390000  1.0
  C  C196  1  0.54980000  0.78840000  0.51360000  1.0
  C  C197  1  0.53560000  0.77470000  0.45520000  1.0
  C  C198  1  0.46790000  0.76090000  0.43910000  1.0
  C  C199  1  0.41370000  0.75620000  0.47890000  1.0
  C  C200  1  0.37130000  0.77000000  0.58370000  1.0
  C  C201  1  0.62190000  0.80470000  0.53560000  1.0
  C  C202  1  0.59430000  0.76690000  0.41050000  1.0
  C  C203  1  0.34370000  0.72640000  0.45970000  1.0
  C  C204  1  0.24390000  0.41020000  0.26930000  1.0
  C  C205  1  0.24330000  0.46690000  0.30870000  1.0
  C  C206  1  0.24590000  0.53770000  0.29070000  1.0
  C  C207  1  0.24910000  0.55260000  0.23150000  1.0
  C  C208  1  0.24790000  0.49620000  0.19220000  1.0
  C  C209  1  0.24620000  0.42560000  0.20950000  1.0
  C  C210  1  0.24430000  0.33810000  0.29790000  1.0
  C  C211  1  0.24240000  0.59300000  0.33860000  1.0
  C  C212  1  0.26040000  0.62700000  0.20670000  1.0
  C  C213  1  0.25050000  0.36940000  0.16280000  1.0
  C  C214  1  0.07200000  0.22850000  0.03860000  1.0
  C  C215  1  0.00390000  0.21350000  0.05390000  1.0
  C  C216  1  0.95020000  0.21160000  0.01360000  1.0
  C  C217  1  0.96440000  0.22530000  0.95520000  1.0
  C  C218  1  0.03210000  0.23910000  0.93910000  1.0
  C  C219  1  0.08630000  0.24380000  0.97890000  1.0
  C  C220  1  0.12870000  0.23000000  0.08370000  1.0
  C  C221  1  0.87810000  0.19530000  0.03560000  1.0
  C  C222  1  0.90570000  0.23310000  0.91050000  1.0
  C  C223  1  0.15630000  0.27360000  0.95970000  1.0
  O  O224  1  0.30530000  0.79430000  0.29220000  1.0
  O  O225  1  0.20620000  0.82680000  0.33250000  1.0
  O  O226  1  0.25670000  0.80430000  0.18020000  1.0
  O  O227  1  0.23710000  0.88560000  0.11270000  1.0
  O  O228  1  0.27780000  0.15380000  0.32450000  1.0
  O  O229  1  0.24100000  0.07360000  0.38840000  1.0
  O  O230  1  0.28170000  0.14510000  0.16670000  1.0
  O  O231  1  0.18840000  0.16140000  0.22460000  1.0
  O  O232  1  0.30930000  0.71960000  0.06840000  1.0
  O  O233  1  0.39260000  0.74100000  0.13500000  1.0
  O  O234  1  0.64530000  0.73540000  0.07490000  1.0
  O  O235  1  0.65190000  0.64110000  0.01530000  1.0
  O  O236  1  0.65000000  0.75900000  0.93090000  1.0
  O  O237  1  0.58470000  0.71640000  0.86020000  1.0
  O  O238  1  0.32540000  0.83110000  0.98310000  1.0
  O  O239  1  0.31230000  0.74220000  0.92070000  1.0
  O  O240  1  0.19470000  0.20570000  0.79220000  1.0
  O  O241  1  0.29380000  0.17320000  0.83250000  1.0
  O  O242  1  0.24330000  0.19570000  0.68020000  1.0
  O  O243  1  0.26290000  0.11440000  0.61270000  1.0
  O  O244  1  0.22220000  0.84620000  0.82450000  1.0
  O  O245  1  0.25900000  0.92640000  0.88840000  1.0
  O  O246  1  0.21830000  0.85490000  0.66666667  1.0
  O  O247  1  0.31160000  0.83860000  0.72460000  1.0
  O  O248  1  0.19070000  0.28040000  0.56840000  1.0
  O  O249  1  0.10740000  0.25900000  0.63500000  1.0
  O  O250  1  0.85470000  0.26460000  0.57490000  1.0
  O  O251  1  0.84810000  0.35890000  0.51530000  1.0
  O  O252  1  0.85000000  0.24100000  0.43090000  1.0
  O  O253  1  0.91530000  0.28360000  0.36020000  1.0
  O  O254  1  0.17460000  0.16890000  0.48310000  1.0
  O  O255  1  0.18770000  0.25780000  0.42070000  1.0
  O  O256  1  0.69470000  0.29430000  0.20780000  1.0
  O  O257  1  0.79380000  0.32680000  0.16750000  1.0
  O  O258  1  0.74330000  0.30430000  0.31980000  1.0
  O  O259  1  0.76290000  0.38560000  0.38730000  1.0
  O  O260  1  0.72220000  0.65380000  0.17550000  1.0
  O  O261  1  0.75900000  0.57360000  0.11160000  1.0
  O  O262  1  0.71830000  0.64510000  0.33333333  1.0
  O  O263  1  0.81160000  0.66140000  0.27540000  1.0
  O  O264  1  0.69070000  0.21960000  0.43160000  1.0
  O  O265  1  0.60740000  0.24100000  0.36500000  1.0
  O  O266  1  0.35470000  0.23540000  0.42510000  1.0
  O  O267  1  0.34810000  0.14110000  0.48470000  1.0
  O  O268  1  0.35000000  0.25900000  0.56910000  1.0
  O  O269  1  0.41530000  0.21640000  0.63980000  1.0
  O  O270  1  0.67460000  0.33110000  0.51690000  1.0
  O  O271  1  0.68770000  0.24220000  0.57930000  1.0
  O  O272  1  0.80530000  0.70570000  0.70780000  1.0
  O  O273  1  0.70620000  0.67320000  0.66750000  1.0
  O  O274  1  0.75670000  0.69570000  0.81980000  1.0
  O  O275  1  0.73710000  0.61440000  0.88730000  1.0
  O  O276  1  0.77780000  0.34620000  0.67550000  1.0
  O  O277  1  0.74100000  0.42640000  0.61160000  1.0
  O  O278  1  0.78170000  0.35490000  0.83330000  1.0
  O  O279  1  0.68840000  0.33860000  0.77540000  1.0
  O  O280  1  0.80930000  0.78040000  0.93160000  1.0
  O  O281  1  0.89260000  0.75900000  0.86500000  1.0
  O  O282  1  0.14530000  0.76460000  0.92510000  1.0
  O  O283  1  0.15190000  0.85890000  0.98470000  1.0
  O  O284  1  0.15000000  0.74100000  0.06910000  1.0
  O  O285  1  0.08470000  0.78360000  0.13980000  1.0
  O  O286  1  0.82540000  0.66890000  0.01690000  1.0
  O  O287  1  0.81230000  0.75780000  0.07930000  1.0
  O  O288  1  0.69470000  0.20570000  0.70780000  1.0
  O  O289  1  0.79380000  0.17320000  0.66750000  1.0
  O  O290  1  0.74330000  0.19570000  0.81980000  1.0
  O  O291  1  0.76290000  0.11440000  0.88730000  1.0
  O  O292  1  0.72220000  0.84620000  0.67550000  1.0
  O  O293  1  0.75900000  0.92640000  0.61160000  1.0
  O  O294  1  0.71830000  0.85490000  0.83330000  1.0
  O  O295  1  0.81160000  0.83860000  0.77540000  1.0
  O  O296  1  0.69070000  0.28040000  0.93160000  1.0
  O  O297  1  0.60740000  0.25900000  0.86500000  1.0
  O  O298  1  0.35470000  0.26460000  0.92510000  1.0
  O  O299  1  0.34810000  0.35890000  0.98470000  1.0
  O  O300  1  0.35000000  0.24100000  0.06910000  1.0
  O  O301  1  0.41530000  0.28360000  0.13980000  1.0
  O  O302  1  0.67460000  0.16890000  0.01690000  1.0
  O  O303  1  0.68770000  0.25780000  0.07930000  1.0
  O  O304  1  0.80530000  0.79430000  0.20780000  1.0
  O  O305  1  0.70620000  0.82680000  0.16750000  1.0
  O  O306  1  0.75670000  0.80430000  0.31980000  1.0
  O  O307  1  0.73710000  0.88560000  0.38730000  1.0
  O  O308  1  0.77780000  0.15380000  0.17550000  1.0
  O  O309  1  0.74100000  0.07360000  0.11160000  1.0
  O  O310  1  0.78170000  0.14510000  0.33333333  1.0
  O  O311  1  0.68840000  0.16140000  0.27540000  1.0
  O  O312  1  0.80930000  0.71960000  0.43160000  1.0
  O  O313  1  0.89260000  0.74100000  0.36500000  1.0
  O  O314  1  0.14530000  0.73540000  0.42510000  1.0
  O  O315  1  0.15190000  0.64110000  0.48470000  1.0
  O  O316  1  0.15000000  0.75900000  0.56910000  1.0
  O  O317  1  0.08470000  0.71640000  0.63980000  1.0
  O  O318  1  0.82540000  0.83110000  0.51690000  1.0
  O  O319  1  0.81230000  0.74220000  0.57930000  1.0
  O  O320  1  0.30530000  0.70570000  0.79220000  1.0
  O  O321  1  0.20620000  0.67320000  0.83250000  1.0
  O  O322  1  0.25670000  0.69570000  0.68020000  1.0
  O  O323  1  0.23710000  0.61440000  0.61270000  1.0
  O  O324  1  0.27780000  0.34620000  0.82450000  1.0
  O  O325  1  0.24100000  0.42640000  0.88840000  1.0
  O  O326  1  0.28170000  0.35490000  0.66666667  1.0
  O  O327  1  0.18840000  0.33860000  0.72460000  1.0
  O  O328  1  0.30930000  0.78040000  0.56840000  1.0
  O  O329  1  0.39260000  0.75900000  0.63500000  1.0
  O  O330  1  0.64530000  0.76460000  0.57490000  1.0
  O  O331  1  0.65190000  0.85890000  0.51530000  1.0
  O  O332  1  0.65000000  0.74100000  0.43090000  1.0
  O  O333  1  0.58470000  0.78360000  0.36020000  1.0
  O  O334  1  0.32540000  0.66890000  0.48310000  1.0
  O  O335  1  0.31230000  0.75780000  0.42070000  1.0
  O  O336  1  0.19470000  0.29430000  0.29220000  1.0
  O  O337  1  0.29380000  0.32680000  0.33250000  1.0
  O  O338  1  0.24330000  0.30430000  0.18020000  1.0
  O  O339  1  0.26290000  0.38560000  0.11270000  1.0
  O  O340  1  0.22220000  0.65380000  0.32450000  1.0
  O  O341  1  0.25900000  0.57360000  0.38840000  1.0
  O  O342  1  0.21830000  0.64510000  0.16670000  1.0
  O  O343  1  0.31160000  0.66140000  0.22460000  1.0
  O  O344  1  0.19070000  0.21960000  0.06840000  1.0
  O  O345  1  0.10740000  0.24100000  0.13500000  1.0
  O  O346  1  0.85470000  0.23540000  0.07490000  1.0
  O  O347  1  0.84810000  0.14110000  0.01530000  1.0
  O  O348  1  0.85000000  0.25900000  0.93090000  1.0
  O  O349  1  0.91530000  0.21640000  0.86020000  1.0
  O  O350  1  0.17460000  0.33110000  0.98310000  1.0
  O  O351  1  0.18770000  0.24220000  0.92070000  1.0
