# generated using pymatgen
data_AgH8(CN)2
_symmetry_space_group_name_H-M   'P 1'
_cell_length_a   10.16450000
_cell_length_b   10.70480000
_cell_length_c   6.20490000
_cell_angle_alpha   90.00000000
_cell_angle_beta   114.27700000
_cell_angle_gamma   90.00000000
_symmetry_Int_Tables_number   1
_chemical_formula_structural   AgH8(CN)2
_chemical_formula_sum   'Ag4 H32 C8 N8'
_cell_volume   615.44411639
_cell_formula_units_Z   4
loop_
 _symmetry_equiv_pos_site_id
 _symmetry_equiv_pos_as_xyz
  1  'x, y, z'
loop_
 _atom_site_type_symbol
 _atom_site_label
 _atom_site_symmetry_multiplicity
 _atom_site_fract_x
 _atom_site_fract_y
 _atom_site_fract_z
 _atom_site_occupancy
  Ag  Ag0  1  0.50000000  0.00000000  0.50000000  1.0
  Ag  Ag1  1  0.00000000  0.50000000  0.50000000  1.0
  Ag  Ag2  1  0.50000000  0.00000000  0.00000000  1.0
  Ag  Ag3  1  0.00000000  0.50000000  0.00000000  1.0
  H  H4  1  0.40100000  0.26580000  0.56520000  1.0
  H  H5  1  0.33440000  0.17550000  0.70010000  1.0
  H  H6  1  0.29480000  0.14220000  0.23450000  1.0
  H  H7  1  0.23330000  0.05820000  0.36030000  1.0
  H  H8  1  0.90100000  0.76580000  0.56520000  1.0
  H  H9  1  0.83440000  0.67550000  0.70010000  1.0
  H  H10  1  0.79480000  0.64220000  0.23450000  1.0
  H  H11  1  0.73330000  0.55820000  0.36030000  1.0
  H  H12  1  0.59900000  0.26580000  0.93480000  1.0
  H  H13  1  0.66560000  0.17550000  0.79990000  1.0
  H  H14  1  0.70520000  0.14220000  0.26550000  1.0
  H  H15  1  0.76670000  0.05820000  0.13970000  1.0
  H  H16  1  0.09900000  0.76580000  0.93480000  1.0
  H  H17  1  0.16560000  0.67550000  0.79990000  1.0
  H  H18  1  0.20520000  0.64220000  0.26550000  1.0
  H  H19  1  0.26670000  0.55820000  0.13970000  1.0
  H  H20  1  0.59900000  0.73420000  0.43480000  1.0
  H  H21  1  0.66560000  0.82450000  0.29990000  1.0
  H  H22  1  0.70520000  0.85780000  0.76550000  1.0
  H  H23  1  0.76670000  0.94180000  0.63970000  1.0
  H  H24  1  0.09900000  0.23420000  0.43480000  1.0
  H  H25  1  0.16560000  0.32450000  0.29990000  1.0
  H  H26  1  0.20520000  0.35780000  0.76550000  1.0
  H  H27  1  0.26670000  0.44180000  0.63970000  1.0
  H  H28  1  0.40100000  0.73420000  0.06520000  1.0
  H  H29  1  0.33440000  0.82450000  0.20010000  1.0
  H  H30  1  0.29480000  0.85780000  0.73450000  1.0
  H  H31  1  0.23330000  0.94180000  0.86030000  1.0
  H  H32  1  0.90100000  0.23420000  0.06520000  1.0
  H  H33  1  0.83440000  0.32450000  0.20010000  1.0
  H  H34  1  0.79480000  0.35780000  0.73450000  1.0
  H  H35  1  0.73330000  0.44180000  0.86030000  1.0
  C  C36  1  0.31800000  0.21130000  0.54400000  1.0
  C  C37  1  0.81800000  0.71130000  0.54400000  1.0
  C  C38  1  0.68200000  0.21130000  0.95600000  1.0
  C  C39  1  0.18200000  0.71130000  0.95600000  1.0
  C  C40  1  0.68200000  0.78870000  0.45600000  1.0
  C  C41  1  0.18200000  0.28870000  0.45600000  1.0
  C  C42  1  0.31800000  0.78870000  0.04400000  1.0
  C  C43  1  0.81800000  0.28870000  0.04400000  1.0
  N  N44  1  0.31050000  0.10880000  0.37970000  1.0
  N  N45  1  0.81050000  0.60880000  0.37970000  1.0
  N  N46  1  0.68950000  0.10880000  0.12030000  1.0
  N  N47  1  0.18950000  0.60880000  0.12030000  1.0
  N  N48  1  0.68950000  0.89120000  0.62030000  1.0
  N  N49  1  0.18950000  0.39120000  0.62030000  1.0
  N  N50  1  0.31050000  0.89120000  0.87970000  1.0
  N  N51  1  0.81050000  0.39120000  0.87970000  1.0
