# generated using pymatgen
data_AgH8(CN)2
_symmetry_space_group_name_H-M   'P 1'
_cell_length_a   10.34280000
_cell_length_b   10.57490000
_cell_length_c   6.25970000
_cell_angle_alpha   90.00000000
_cell_angle_beta   114.85200000
_cell_angle_gamma   90.00000000
_symmetry_Int_Tables_number   1
_chemical_formula_structural   AgH8(CN)2
_chemical_formula_sum   'Ag4 H32 C8 N8'
_cell_volume   621.24796387
_cell_formula_units_Z   4
loop_
 _symmetry_equiv_pos_site_id
 _symmetry_equiv_pos_as_xyz
  1  'x, y, z'
loop_
 _atom_site_type_symbol
 _atom_site_label
 _atom_site_symmetry_multiplicity
 _atom_site_fract_x
 _atom_site_fract_y
 _atom_site_fract_z
 _atom_site_occupancy
  Ag  Ag0  1  0.50000000  0.00000000  0.50000000  1.0
  Ag  Ag1  1  0.00000000  0.50000000  0.50000000  1.0
  Ag  Ag2  1  0.50000000  0.00000000  0.00000000  1.0
  Ag  Ag3  1  0.00000000  0.50000000  0.00000000  1.0
  H  H4  1  0.39890000  0.26560000  0.57340000  1.0
  H  H5  1  0.33080000  0.17290000  0.69690000  1.0
  H  H6  1  0.29630000  0.14510000  0.23960000  1.0
  H  H7  1  0.23640000  0.05820000  0.35780000  1.0
  H  H8  1  0.89890000  0.76560000  0.57340000  1.0
  H  H9  1  0.83080000  0.67290000  0.69690000  1.0
  H  H10  1  0.79630000  0.64510000  0.23960000  1.0
  H  H11  1  0.73640000  0.55820000  0.35780000  1.0
  H  H12  1  0.60110000  0.26560000  0.92660000  1.0
  H  H13  1  0.66920000  0.17290000  0.80310000  1.0
  H  H14  1  0.70370000  0.14510000  0.26040000  1.0
  H  H15  1  0.76360000  0.05820000  0.14220000  1.0
  H  H16  1  0.10110000  0.76560000  0.92660000  1.0
  H  H17  1  0.16920000  0.67290000  0.80310000  1.0
  H  H18  1  0.20370000  0.64510000  0.26040000  1.0
  H  H19  1  0.26360000  0.55820000  0.14220000  1.0
  H  H20  1  0.60110000  0.73440000  0.42660000  1.0
  H  H21  1  0.66920000  0.82710000  0.30310000  1.0
  H  H22  1  0.70370000  0.85490000  0.76040000  1.0
  H  H23  1  0.76360000  0.94180000  0.64220000  1.0
  H  H24  1  0.10110000  0.23440000  0.42660000  1.0
  H  H25  1  0.16920000  0.32710000  0.30310000  1.0
  H  H26  1  0.20370000  0.35490000  0.76040000  1.0
  H  H27  1  0.26360000  0.44180000  0.64220000  1.0
  H  H28  1  0.39890000  0.73440000  0.07340000  1.0
  H  H29  1  0.33080000  0.82710000  0.19690000  1.0
  H  H30  1  0.29630000  0.85490000  0.73960000  1.0
  H  H31  1  0.23640000  0.94180000  0.85780000  1.0
  H  H32  1  0.89890000  0.23440000  0.07340000  1.0
  H  H33  1  0.83080000  0.32710000  0.19690000  1.0
  H  H34  1  0.79630000  0.35490000  0.73960000  1.0
  H  H35  1  0.73640000  0.44180000  0.85780000  1.0
  C  C36  1  0.31710000  0.21070000  0.54590000  1.0
  C  C37  1  0.81710000  0.71070000  0.54590000  1.0
  C  C38  1  0.68290000  0.21070000  0.95410000  1.0
  C  C39  1  0.18290000  0.71070000  0.95410000  1.0
  C  C40  1  0.68290000  0.78930000  0.45410000  1.0
  C  C41  1  0.18290000  0.28930000  0.45410000  1.0
  C  C42  1  0.31710000  0.78930000  0.04590000  1.0
  C  C43  1  0.81710000  0.28930000  0.04590000  1.0
  N  N44  1  0.31150000  0.10980000  0.38070000  1.0
  N  N45  1  0.81150000  0.60980000  0.38070000  1.0
  N  N46  1  0.68850000  0.10980000  0.11930000  1.0
  N  N47  1  0.18850000  0.60980000  0.11930000  1.0
  N  N48  1  0.68850000  0.89020000  0.61930000  1.0
  N  N49  1  0.18850000  0.39020000  0.61930000  1.0
  N  N50  1  0.31150000  0.89020000  0.88070000  1.0
  N  N51  1  0.81150000  0.39020000  0.88070000  1.0
