# generated using pymatgen
data_AgH8(CN)2
_symmetry_space_group_name_H-M   'P 1'
_cell_length_a   10.23190000
_cell_length_b   10.65310000
_cell_length_c   6.22100000
_cell_angle_alpha   90.00000000
_cell_angle_beta   114.48500000
_cell_angle_gamma   90.00000000
_symmetry_Int_Tables_number   1
_chemical_formula_structural   AgH8(CN)2
_chemical_formula_sum   'Ag4 H32 C8 N8'
_cell_volume   617.11655603
_cell_formula_units_Z   4
loop_
 _symmetry_equiv_pos_site_id
 _symmetry_equiv_pos_as_xyz
  1  'x, y, z'
loop_
 _atom_site_type_symbol
 _atom_site_label
 _atom_site_symmetry_multiplicity
 _atom_site_fract_x
 _atom_site_fract_y
 _atom_site_fract_z
 _atom_site_occupancy
  Ag  Ag0  1  0.50000000  0.00000000  0.50000000  1.0
  Ag  Ag1  1  0.00000000  0.50000000  0.50000000  1.0
  Ag  Ag2  1  0.50000000  0.00000000  0.00000000  1.0
  Ag  Ag3  1  0.00000000  0.50000000  0.00000000  1.0
  H  H4  1  0.40070000  0.26640000  0.56820000  1.0
  H  H5  1  0.33370000  0.17490000  0.70060000  1.0
  H  H6  1  0.29500000  0.14330000  0.23580000  1.0
  H  H7  1  0.23420000  0.05800000  0.36020000  1.0
  H  H8  1  0.90070000  0.76640000  0.56820000  1.0
  H  H9  1  0.83370000  0.67490000  0.70060000  1.0
  H  H10  1  0.79500000  0.64330000  0.23580000  1.0
  H  H11  1  0.73420000  0.55800000  0.36020000  1.0
  H  H12  1  0.59930000  0.26640000  0.93180000  1.0
  H  H13  1  0.66630000  0.17490000  0.79940000  1.0
  H  H14  1  0.70500000  0.14330000  0.26420000  1.0
  H  H15  1  0.76580000  0.05800000  0.13980000  1.0
  H  H16  1  0.09930000  0.76640000  0.93180000  1.0
  H  H17  1  0.16630000  0.67490000  0.79940000  1.0
  H  H18  1  0.20500000  0.64330000  0.26420000  1.0
  H  H19  1  0.26580000  0.55800000  0.13980000  1.0
  H  H20  1  0.59930000  0.73360000  0.43180000  1.0
  H  H21  1  0.66630000  0.82510000  0.29940000  1.0
  H  H22  1  0.70500000  0.85670000  0.76420000  1.0
  H  H23  1  0.76580000  0.94200000  0.63980000  1.0
  H  H24  1  0.09930000  0.23360000  0.43180000  1.0
  H  H25  1  0.16630000  0.32510000  0.29940000  1.0
  H  H26  1  0.20500000  0.35670000  0.76420000  1.0
  H  H27  1  0.26580000  0.44200000  0.63980000  1.0
  H  H28  1  0.40070000  0.73360000  0.06820000  1.0
  H  H29  1  0.33370000  0.82510000  0.20060000  1.0
  H  H30  1  0.29500000  0.85670000  0.73580000  1.0
  H  H31  1  0.23420000  0.94200000  0.86020000  1.0
  H  H32  1  0.90070000  0.23360000  0.06820000  1.0
  H  H33  1  0.83370000  0.32510000  0.20060000  1.0
  H  H34  1  0.79500000  0.35670000  0.73580000  1.0
  H  H35  1  0.73420000  0.44200000  0.86020000  1.0
  C  C36  1  0.31800000  0.21130000  0.54530000  1.0
  C  C37  1  0.81800000  0.71130000  0.54530000  1.0
  C  C38  1  0.68200000  0.21130000  0.95470000  1.0
  C  C39  1  0.18200000  0.71130000  0.95470000  1.0
  C  C40  1  0.68200000  0.78870000  0.45470000  1.0
  C  C41  1  0.18200000  0.28870000  0.45470000  1.0
  C  C42  1  0.31800000  0.78870000  0.04530000  1.0
  C  C43  1  0.81800000  0.28870000  0.04530000  1.0
  N  N44  1  0.31080000  0.10920000  0.38040000  1.0
  N  N45  1  0.81080000  0.60920000  0.38040000  1.0
  N  N46  1  0.68920000  0.10920000  0.11960000  1.0
  N  N47  1  0.18920000  0.60920000  0.11960000  1.0
  N  N48  1  0.68920000  0.89080000  0.61960000  1.0
  N  N49  1  0.18920000  0.39080000  0.61960000  1.0
  N  N50  1  0.31080000  0.89080000  0.88040000  1.0
  N  N51  1  0.81080000  0.39080000  0.88040000  1.0
