# generated using pymatgen
data_AgH8(CN)2
_symmetry_space_group_name_H-M   'P 1'
_cell_length_a   10.44880000
_cell_length_b   10.50410000
_cell_length_c   6.30650000
_cell_angle_alpha   90.00000000
_cell_angle_beta   115.27200000
_cell_angle_gamma   90.00000000
_symmetry_Int_Tables_number   1
_chemical_formula_structural   AgH8(CN)2
_chemical_formula_sum   'Ag4 H32 C8 N8'
_cell_volume   625.92458642
_cell_formula_units_Z   4
loop_
 _symmetry_equiv_pos_site_id
 _symmetry_equiv_pos_as_xyz
  1  'x, y, z'
loop_
 _atom_site_type_symbol
 _atom_site_label
 _atom_site_symmetry_multiplicity
 _atom_site_fract_x
 _atom_site_fract_y
 _atom_site_fract_z
 _atom_site_occupancy
  Ag  Ag0  1  0.50000000  0.00000000  0.50000000  1.0
  Ag  Ag1  1  0.00000000  0.50000000  0.50000000  1.0
  Ag  Ag2  1  0.50000000  0.00000000  0.00000000  1.0
  Ag  Ag3  1  0.00000000  0.50000000  0.00000000  1.0
  H  H4  1  0.39720000  0.26450000  0.58080000  1.0
  H  H5  1  0.32670000  0.17020000  0.69190000  1.0
  H  H6  1  0.30020000  0.14780000  0.24490000  1.0
  H  H7  1  0.23970000  0.05890000  0.35360000  1.0
  H  H8  1  0.89720000  0.76450000  0.58080000  1.0
  H  H9  1  0.82670000  0.67020000  0.69190000  1.0
  H  H10  1  0.80020000  0.64780000  0.24490000  1.0
  H  H11  1  0.73970000  0.55890000  0.35360000  1.0
  H  H12  1  0.60280000  0.26450000  0.91920000  1.0
  H  H13  1  0.67330000  0.17020000  0.80810000  1.0
  H  H14  1  0.69980000  0.14780000  0.25510000  1.0
  H  H15  1  0.76030000  0.05890000  0.14640000  1.0
  H  H16  1  0.10280000  0.76450000  0.91920000  1.0
  H  H17  1  0.17330000  0.67020000  0.80810000  1.0
  H  H18  1  0.19980000  0.64780000  0.25510000  1.0
  H  H19  1  0.26030000  0.55890000  0.14640000  1.0
  H  H20  1  0.60280000  0.73550000  0.41920000  1.0
  H  H21  1  0.67330000  0.82980000  0.30810000  1.0
  H  H22  1  0.69980000  0.85220000  0.75510000  1.0
  H  H23  1  0.76030000  0.94110000  0.64640000  1.0
  H  H24  1  0.10280000  0.23550000  0.41920000  1.0
  H  H25  1  0.17330000  0.32980000  0.30810000  1.0
  H  H26  1  0.19980000  0.35220000  0.75510000  1.0
  H  H27  1  0.26030000  0.44110000  0.64640000  1.0
  H  H28  1  0.39720000  0.73550000  0.08080000  1.0
  H  H29  1  0.32670000  0.82980000  0.19190000  1.0
  H  H30  1  0.30020000  0.85220000  0.74490000  1.0
  H  H31  1  0.23970000  0.94110000  0.85360000  1.0
  H  H32  1  0.89720000  0.23550000  0.08080000  1.0
  H  H33  1  0.82670000  0.32980000  0.19190000  1.0
  H  H34  1  0.80020000  0.35220000  0.74490000  1.0
  H  H35  1  0.73970000  0.44110000  0.85360000  1.0
  C  C36  1  0.31590000  0.20990000  0.54630000  1.0
  C  C37  1  0.81590000  0.70990000  0.54630000  1.0
  C  C38  1  0.68410000  0.20990000  0.95370000  1.0
  C  C39  1  0.18410000  0.70990000  0.95370000  1.0
  C  C40  1  0.68410000  0.79010000  0.45370000  1.0
  C  C41  1  0.18410000  0.29010000  0.45370000  1.0
  C  C42  1  0.31590000  0.79010000  0.04630000  1.0
  C  C43  1  0.81590000  0.29010000  0.04630000  1.0
  N  N44  1  0.31380000  0.11080000  0.38160000  1.0
  N  N45  1  0.81380000  0.61080000  0.38160000  1.0
  N  N46  1  0.68620000  0.11080000  0.11840000  1.0
  N  N47  1  0.18620000  0.61080000  0.11840000  1.0
  N  N48  1  0.68620000  0.88920000  0.61840000  1.0
  N  N49  1  0.18620000  0.38920000  0.61840000  1.0
  N  N50  1  0.31380000  0.88920000  0.88160000  1.0
  N  N51  1  0.81380000  0.38920000  0.88160000  1.0
