# generated using pymatgen
data_Ag7H20(C6N5)5
_symmetry_space_group_name_H-M   'P 1'
_cell_length_a   12.06800000
_cell_length_b   13.90900000
_cell_length_c   22.74200000
_cell_angle_alpha   95.90200000
_cell_angle_beta   104.96400000
_cell_angle_gamma   103.97000000
_symmetry_Int_Tables_number   1
_chemical_formula_structural   Ag7H20(C6N5)5
_chemical_formula_sum   'Ag14 H40 C60 N50'
_cell_volume   3522.82561560
_cell_formula_units_Z   2
loop_
 _symmetry_equiv_pos_site_id
 _symmetry_equiv_pos_as_xyz
  1  'x, y, z'
loop_
 _atom_site_type_symbol
 _atom_site_label
 _atom_site_symmetry_multiplicity
 _atom_site_fract_x
 _atom_site_fract_y
 _atom_site_fract_z
 _atom_site_occupancy
  Ag  Ag0  1  0.31130000  0.83225000  0.93353000  1.0
  Ag  Ag1  1  0.51264000  0.94278000  0.07947000  1.0
  Ag  Ag2  1  0.81736000  0.57572000  0.44031000  1.0
  Ag  Ag3  1  0.14328000  0.01634000  0.85413000  1.0
  Ag  Ag4  1  0.97015000  0.15706000  0.30007000  1.0
  Ag  Ag5  1  0.39742000  0.12121000  0.17298000  1.0
  Ag  Ag6  1  0.84607000  0.33904000  0.00332000  1.0
  Ag  Ag7  1  0.68870000  0.16775000  0.06647000  1.0
  Ag  Ag8  1  0.48736000  0.05722000  0.92053000  1.0
  Ag  Ag9  1  0.18264000  0.42428000  0.55969000  1.0
  Ag  Ag10  1  0.85672000  0.98366000  0.14587000  1.0
  Ag  Ag11  1  0.02985000  0.84294000  0.69993000  1.0
  Ag  Ag12  1  0.60258000  0.87879000  0.82702000  1.0
  Ag  Ag13  1  0.15393000  0.66096000  0.99668000  1.0
  H  H14  1  0.29090000  0.06890000  0.49570000  1.0
  H  H15  1  0.80160000  0.21910000  0.36120000  1.0
  H  H16  1  0.05890000  0.01750000  0.63140000  1.0
  H  H17  1  0.60400000  0.33170000  0.23580000  1.0
  H  H18  1  0.08760000  0.33150000  0.08120000  1.0
  H  H19  1  0.43050000  0.76870000  0.60310000  1.0
  H  H20  1  0.65330000  0.62630000  0.56460000  1.0
  H  H21  1  0.65470000  0.47950000  0.30350000  1.0
  H  H22  1  0.55740000  0.83730000  0.69660000  1.0
  H  H23  1  0.79960000  0.71020000  0.65620000  1.0
  H  H24  1  0.22730000  0.24790000  0.09100000  1.0
  H  H25  1  0.86260000  0.14050000  0.94430000  1.0
  H  H26  1  0.85910000  0.36710000  0.42710000  1.0
  H  H27  1  0.99550000  0.04920000  0.94030000  1.0
  H  H28  1  0.15030000  0.91360000  0.48650000  1.0
  H  H29  1  0.20150000  0.17750000  0.63660000  1.0
  H  H30  1  0.53860000  0.52030000  0.91160000  1.0
  H  H31  1  0.74420000  0.64660000  0.08060000  1.0
  H  H32  1  0.61550000  0.38660000  0.91390000  1.0
  H  H33  1  0.83670000  0.52230000  0.07350000  1.0
  H  H34  1  0.70910000  0.93110000  0.50430000  1.0
  H  H35  1  0.19840000  0.78090000  0.63880000  1.0
  H  H36  1  0.94110000  0.98250000  0.36860000  1.0
  H  H37  1  0.39600000  0.66830000  0.76420000  1.0
  H  H38  1  0.91240000  0.66850000  0.91880000  1.0
  H  H39  1  0.56950000  0.23130000  0.39690000  1.0
  H  H40  1  0.34670000  0.37370000  0.43540000  1.0
  H  H41  1  0.34530000  0.52050000  0.69650000  1.0
  H  H42  1  0.44260000  0.16270000  0.30340000  1.0
  H  H43  1  0.20040000  0.28980000  0.34380000  1.0
  H  H44  1  0.77270000  0.75210000  0.90900000  1.0
  H  H45  1  0.13740000  0.85950000  0.05570000  1.0
  H  H46  1  0.14090000  0.63290000  0.57290000  1.0
  H  H47  1  0.00450000  0.95080000  0.05970000  1.0
  H  H48  1  0.84970000  0.08640000  0.51350000  1.0
  H  H49  1  0.79850000  0.82250000  0.36340000  1.0
  H  H50  1  0.46140000  0.47970000  0.08840000  1.0
  H  H51  1  0.25580000  0.35340000  0.91940000  1.0
  H  H52  1  0.38450000  0.61340000  0.08610000  1.0
  H  H53  1  0.16330000  0.47770000  0.92650000  1.0
  C  C54  1  0.24400000  0.05900000  0.52260000  1.0
  C  C55  1  0.77340000  0.27210000  0.34800000  1.0
  C  C56  1  0.21520000  0.08030000  0.01010000  1.0
  C  C57  1  0.68310000  0.17360000  0.24310000  1.0
  C  C58  1  0.10500000  0.02730000  0.60410000  1.0
  C  C59  1  0.65700000  0.33800000  0.27480000  1.0
  C  C60  1  0.13090000  0.13950000  0.01550000  1.0
  C  C61  1  0.07000000  0.27300000  0.05260000  1.0
  C  C62  1  0.50400000  0.75500000  0.61470000  1.0
  C  C63  1  0.63700000  0.67280000  0.59120000  1.0
  C  C64  1  0.68600000  0.42700000  0.31560000  1.0
  C  C65  1  0.58190000  0.79970000  0.66870000  1.0
  C  C66  1  0.72550000  0.72310000  0.64620000  1.0
  C  C67  1  0.15600000  0.22510000  0.05920000  1.0
  C  C68  1  0.93890000  0.16310000  0.97210000  1.0
  C  C69  1  0.70090000  0.25870000  0.28840000  1.0
  C  C70  1  0.80530000  0.36040000  0.38840000  1.0
  C  C71  1  0.09820000  0.95300000  0.55720000  1.0
  C  C72  1  0.01580000  0.84890000  0.55210000  1.0
  C  C73  1  0.01630000  0.10670000  0.97010000  1.0
  C  C74  1  0.16100000  0.96640000  0.51790000  1.0
  C  C75  1  0.19000000  0.12200000  0.60670000  1.0
  C  C76  1  0.70030000  0.79320000  0.68600000  1.0
  C  C77  1  0.78350000  0.84190000  0.74380000  1.0
  C  C78  1  0.57100000  0.67700000  0.99640000  1.0
  C  C79  1  0.62800000  0.59800000  0.99430000  1.0
  C  C80  1  0.59700000  0.51970000  0.94710000  1.0
  C  C81  1  0.71900000  0.59700000  0.04540000  1.0
  C  C82  1  0.64500000  0.44010000  0.94700000  1.0
  C  C83  1  0.77000000  0.51800000  0.04070000  1.0
  C  C84  1  0.75600000  0.94100000  0.47740000  1.0
  C  C85  1  0.22660000  0.72790000  0.65200000  1.0
  C  C86  1  0.78480000  0.91970000  0.98990000  1.0
  C  C87  1  0.31690000  0.82640000  0.75690000  1.0
  C  C88  1  0.89500000  0.97270000  0.39590000  1.0
  C  C89  1  0.34300000  0.66200000  0.72520000  1.0
  C  C90  1  0.86910000  0.86050000  0.98450000  1.0
  C  C91  1  0.93000000  0.72700000  0.94740000  1.0
  C  C92  1  0.49600000  0.24500000  0.38530000  1.0
  C  C93  1  0.36300000  0.32720000  0.40880000  1.0
  C  C94  1  0.31400000  0.57300000  0.68440000  1.0
  C  C95  1  0.41810000  0.20030000  0.33130000  1.0
  C  C96  1  0.27450000  0.27690000  0.35380000  1.0
  C  C97  1  0.84400000  0.77490000  0.94080000  1.0
  C  C98  1  0.06110000  0.83690000  0.02790000  1.0
  C  C99  1  0.29910000  0.74130000  0.71160000  1.0
  C  C100  1  0.19470000  0.63960000  0.61160000  1.0
  C  C101  1  0.90180000  0.04700000  0.44280000  1.0
  C  C102  1  0.98420000  0.15110000  0.44790000  1.0
  C  C103  1  0.98370000  0.89330000  0.02990000  1.0
  C  C104  1  0.83900000  0.03360000  0.48210000  1.0
  C  C105  1  0.81000000  0.87800000  0.39330000  1.0
  C  C106  1  0.29970000  0.20680000  0.31400000  1.0
  C  C107  1  0.21650000  0.15810000  0.25620000  1.0
  C  C108  1  0.42900000  0.32300000  0.00360000  1.0
  C  C109  1  0.37200000  0.40200000  0.00570000  1.0
  C  C110  1  0.40300000  0.48030000  0.05290000  1.0
  C  C111  1  0.28100000  0.40300000  0.95460000  1.0
  C  C112  1  0.35500000  0.55990000  0.05300000  1.0
  C  C113  1  0.23000000  0.48200000  0.95930000  1.0
  N  N114  1  0.53120000  0.68990000  0.57640000  1.0
  N  N115  1  0.97590000  0.78990000  0.49800000  1.0
  N  N116  1  0.90420000  0.71640000  0.56900000  1.0
  N  N117  1  0.25300000  0.13000000  0.56530000  1.0
  N  N118  1  0.96600000  0.24870000  0.01180000  1.0
  N  N119  1  0.52550000  0.80500000  0.02720000  1.0
  N  N120  1  0.45900000  0.76740000  0.96830000  1.0
  N  N121  1  0.72750000  0.05940000  0.18980000  1.0
  N  N122  1  0.61950000  0.05910000  0.16400000  1.0
  N  N123  1  0.77520000  0.12820000  0.24180000  1.0
  N  N124  1  0.86310000  0.92890000  0.83610000  1.0
  N  N125  1  0.30780000  0.07890000  0.05750000  1.0
  N  N126  1  0.35650000  0.01070000  0.03760000  1.0
  N  N127  1  0.94820000  0.91850000  0.81160000  1.0
  N  N128  1  0.76140000  0.43880000  0.37420000  1.0
  N  N129  1  0.58930000  0.13120000  0.19500000  1.0
  N  N130  1  0.75970000  0.88340000  0.79360000  1.0
  N  N131  1  0.90730000  0.70990000  0.50950000  1.0
  N  N132  1  0.30160000  0.97770000  0.97940000  1.0
  N  N133  1  0.90090000  0.86290000  0.75400000  1.0
  N  N134  1  0.20720000  0.01750000  0.96160000  1.0
  N  N135  1  0.97810000  0.80740000  0.59550000  1.0
  N  N136  1  0.60220000  0.74980000  0.04550000  1.0
  N  N137  1  0.48820000  0.68800000  0.94930000  1.0
  N  N138  1  0.74000000  0.44110000  0.99770000  1.0
  N  N139  1  0.46880000  0.31010000  0.42360000  1.0
  N  N140  1  0.02410000  0.21010000  0.50200000  1.0
  N  N141  1  0.09580000  0.28360000  0.43100000  1.0
  N  N142  1  0.74700000  0.87000000  0.43470000  1.0
  N  N143  1  0.03400000  0.75130000  0.98820000  1.0
  N  N144  1  0.47450000  0.19500000  0.97280000  1.0
  N  N145  1  0.54100000  0.23260000  0.03170000  1.0
  N  N146  1  0.27250000  0.94060000  0.81020000  1.0
  N  N147  1  0.38050000  0.94090000  0.83600000  1.0
  N  N148  1  0.22480000  0.87180000  0.75820000  1.0
  N  N149  1  0.13690000  0.07110000  0.16390000  1.0
  N  N150  1  0.69220000  0.92110000  0.94250000  1.0
  N  N151  1  0.64350000  0.98930000  0.96240000  1.0
  N  N152  1  0.05180000  0.08150000  0.18840000  1.0
  N  N153  1  0.23860000  0.56120000  0.62580000  1.0
  N  N154  1  0.41070000  0.86880000  0.80500000  1.0
  N  N155  1  0.24030000  0.11660000  0.20640000  1.0
  N  N156  1  0.09270000  0.29010000  0.49050000  1.0
  N  N157  1  0.69840000  0.02230000  0.02060000  1.0
  N  N158  1  0.09910000  0.13710000  0.24600000  1.0
  N  N159  1  0.79280000  0.98250000  0.03840000  1.0
  N  N160  1  0.02190000  0.19260000  0.40450000  1.0
  N  N161  1  0.39780000  0.25020000  0.95450000  1.0
  N  N162  1  0.51180000  0.31200000  0.05070000  1.0
  N  N163  1  0.26000000  0.55890000  0.00230000  1.0
