# generated using pymatgen
data_Ag3H12(C2N5)2
_symmetry_space_group_name_H-M   'P 1'
_cell_length_a   29.60100000
_cell_length_b   29.60100000
_cell_length_c   3.44960000
_cell_angle_alpha   90.00000000
_cell_angle_beta   90.00000000
_cell_angle_gamma   90.00000000
_symmetry_Int_Tables_number   1
_chemical_formula_structural   Ag3H12(C2N5)2
_chemical_formula_sum   'Ag24 H96 C32 N80'
_cell_volume   3022.60575577
_cell_formula_units_Z   8
loop_
 _symmetry_equiv_pos_site_id
 _symmetry_equiv_pos_as_xyz
  1  'x, y, z'
loop_
 _atom_site_type_symbol
 _atom_site_label
 _atom_site_symmetry_multiplicity
 _atom_site_fract_x
 _atom_site_fract_y
 _atom_site_fract_z
 _atom_site_occupancy
  Ag  Ag0  1  0.43961000  0.31039000  0.12500000  1.0
  Ag  Ag1  1  0.06039000  0.68961000  0.62500000  1.0
  Ag  Ag2  1  0.93961000  0.18961000  0.37500000  1.0
  Ag  Ag3  1  0.56039000  0.81039000  0.87500000  1.0
  Ag  Ag4  1  0.06039000  0.31039000  0.37500000  1.0
  Ag  Ag5  1  0.43961000  0.68961000  0.87500000  1.0
  Ag  Ag6  1  0.56039000  0.18961000  0.12500000  1.0
  Ag  Ag7  1  0.93961000  0.81039000  0.62500000  1.0
  Ag  Ag8  1  0.56039000  0.68961000  0.87500000  1.0
  Ag  Ag9  1  0.93961000  0.31039000  0.37500000  1.0
  Ag  Ag10  1  0.06039000  0.81039000  0.62500000  1.0
  Ag  Ag11  1  0.43961000  0.18961000  0.12500000  1.0
  Ag  Ag12  1  0.93961000  0.68961000  0.62500000  1.0
  Ag  Ag13  1  0.56039000  0.31039000  0.12500000  1.0
  Ag  Ag14  1  0.43961000  0.81039000  0.87500000  1.0
  Ag  Ag15  1  0.06039000  0.18961000  0.37500000  1.0
  Ag  Ag16  1  0.25000000  0.25000000  0.75000000  1.0
  Ag  Ag17  1  0.25000000  0.75000000  0.25000000  1.0
  Ag  Ag18  1  0.00000000  0.00000000  0.00000000  1.0
  Ag  Ag19  1  0.50000000  0.50000000  0.50000000  1.0
  Ag  Ag20  1  0.50000000  0.00000000  0.50000000  1.0
  Ag  Ag21  1  0.00000000  0.50000000  0.00000000  1.0
  Ag  Ag22  1  0.75000000  0.25000000  0.75000000  1.0
  Ag  Ag23  1  0.75000000  0.75000000  0.25000000  1.0
  H  H24  1  0.35000000  0.35440000  0.43230000  1.0
  H  H25  1  0.30420000  0.34140000  0.57320000  1.0
  H  H26  1  0.33310000  0.31620000  0.48150000  1.0
  H  H27  1  0.85000000  0.85440000  0.93230000  1.0
  H  H28  1  0.80420000  0.84140000  0.07320000  1.0
  H  H29  1  0.83310000  0.81620000  0.98150000  1.0
  H  H30  1  0.15000000  0.64560000  0.93230000  1.0
  H  H31  1  0.19580000  0.65860000  0.07320000  1.0
  H  H32  1  0.16690000  0.68380000  0.98150000  1.0
  H  H33  1  0.65000000  0.14560000  0.43230000  1.0
  H  H34  1  0.69580000  0.15860000  0.57320000  1.0
  H  H35  1  0.66690000  0.18380000  0.48150000  1.0
  H  H36  1  0.89560000  0.10000000  0.68230000  1.0
  H  H37  1  0.90860000  0.05420000  0.82320000  1.0
  H  H38  1  0.93380000  0.08310000  0.73150000  1.0
  H  H39  1  0.39560000  0.60000000  0.18230000  1.0
  H  H40  1  0.40860000  0.55420000  0.32320000  1.0
  H  H41  1  0.43380000  0.58310000  0.23150000  1.0
  H  H42  1  0.60440000  0.90000000  0.18230000  1.0
  H  H43  1  0.59140000  0.94580000  0.32320000  1.0
  H  H44  1  0.56620000  0.91690000  0.23150000  1.0
  H  H45  1  0.10440000  0.40000000  0.68230000  1.0
  H  H46  1  0.09140000  0.44580000  0.82320000  1.0
  H  H47  1  0.06620000  0.41690000  0.73150000  1.0
  H  H48  1  0.15000000  0.35440000  0.06770000  1.0
  H  H49  1  0.19580000  0.34140000  0.92680000  1.0
  H  H50  1  0.16690000  0.31620000  0.01850000  1.0
  H  H51  1  0.65000000  0.85440000  0.56770000  1.0
  H  H52  1  0.69580000  0.84140000  0.42680000  1.0
  H  H53  1  0.66690000  0.81620000  0.51850000  1.0
  H  H54  1  0.35000000  0.64560000  0.56770000  1.0
  H  H55  1  0.30420000  0.65860000  0.42680000  1.0
  H  H56  1  0.33310000  0.68380000  0.51850000  1.0
  H  H57  1  0.85000000  0.14560000  0.06770000  1.0
  H  H58  1  0.80420000  0.15860000  0.92680000  1.0
  H  H59  1  0.83310000  0.18380000  0.01850000  1.0
  H  H60  1  0.60440000  0.10000000  0.81770000  1.0
  H  H61  1  0.59140000  0.05420000  0.67680000  1.0
  H  H62  1  0.56620000  0.08310000  0.76850000  1.0
  H  H63  1  0.10440000  0.60000000  0.31770000  1.0
  H  H64  1  0.09140000  0.55420000  0.17680000  1.0
  H  H65  1  0.06620000  0.58310000  0.26850000  1.0
  H  H66  1  0.89560000  0.90000000  0.31770000  1.0
  H  H67  1  0.90860000  0.94580000  0.17680000  1.0
  H  H68  1  0.93380000  0.91690000  0.26850000  1.0
  H  H69  1  0.39560000  0.40000000  0.81770000  1.0
  H  H70  1  0.40860000  0.44580000  0.67680000  1.0
  H  H71  1  0.43380000  0.41690000  0.76850000  1.0
  H  H72  1  0.65000000  0.64560000  0.56770000  1.0
  H  H73  1  0.69580000  0.65860000  0.42680000  1.0
  H  H74  1  0.66690000  0.68380000  0.51850000  1.0
  H  H75  1  0.15000000  0.14560000  0.06770000  1.0
  H  H76  1  0.19580000  0.15860000  0.92680000  1.0
  H  H77  1  0.16690000  0.18380000  0.01850000  1.0
  H  H78  1  0.85000000  0.35440000  0.06770000  1.0
  H  H79  1  0.80420000  0.34140000  0.92680000  1.0
  H  H80  1  0.83310000  0.31620000  0.01850000  1.0
  H  H81  1  0.35000000  0.85440000  0.56770000  1.0
  H  H82  1  0.30420000  0.84140000  0.42680000  1.0
  H  H83  1  0.33310000  0.81620000  0.51850000  1.0
  H  H84  1  0.10440000  0.90000000  0.31770000  1.0
  H  H85  1  0.09140000  0.94580000  0.17680000  1.0
  H  H86  1  0.06620000  0.91690000  0.26850000  1.0
  H  H87  1  0.60440000  0.40000000  0.81770000  1.0
  H  H88  1  0.59140000  0.44580000  0.67680000  1.0
  H  H89  1  0.56620000  0.41690000  0.76850000  1.0
  H  H90  1  0.39560000  0.10000000  0.81770000  1.0
  H  H91  1  0.40860000  0.05420000  0.67680000  1.0
  H  H92  1  0.43380000  0.08310000  0.76850000  1.0
  H  H93  1  0.89560000  0.60000000  0.31770000  1.0
  H  H94  1  0.90860000  0.55420000  0.17680000  1.0
  H  H95  1  0.93380000  0.58310000  0.26850000  1.0
  H  H96  1  0.85000000  0.64560000  0.93230000  1.0
  H  H97  1  0.80420000  0.65860000  0.07320000  1.0
  H  H98  1  0.83310000  0.68380000  0.98150000  1.0
  H  H99  1  0.35000000  0.14560000  0.43230000  1.0
  H  H100  1  0.30420000  0.15860000  0.57320000  1.0
  H  H101  1  0.33310000  0.18380000  0.48150000  1.0
  H  H102  1  0.65000000  0.35440000  0.43230000  1.0
  H  H103  1  0.69580000  0.34140000  0.57320000  1.0
  H  H104  1  0.66690000  0.31620000  0.48150000  1.0
  H  H105  1  0.15000000  0.85440000  0.93230000  1.0
  H  H106  1  0.19580000  0.84140000  0.07320000  1.0
  H  H107  1  0.16690000  0.81620000  0.98150000  1.0
  H  H108  1  0.39560000  0.90000000  0.18230000  1.0
  H  H109  1  0.40860000  0.94580000  0.32320000  1.0
  H  H110  1  0.43380000  0.91690000  0.23150000  1.0
  H  H111  1  0.89560000  0.40000000  0.68230000  1.0
  H  H112  1  0.90860000  0.44580000  0.82320000  1.0
  H  H113  1  0.93380000  0.41690000  0.73150000  1.0
  H  H114  1  0.10440000  0.10000000  0.68230000  1.0
  H  H115  1  0.09140000  0.05420000  0.82320000  1.0
  H  H116  1  0.06620000  0.08310000  0.73150000  1.0
  H  H117  1  0.60440000  0.60000000  0.18230000  1.0
  H  H118  1  0.59140000  0.55420000  0.32320000  1.0
  H  H119  1  0.56620000  0.58310000  0.23150000  1.0
  C  C120  1  0.34266000  0.28540000  0.45270000  1.0
  C  C121  1  0.84266000  0.78540000  0.95270000  1.0
  C  C122  1  0.15734000  0.71460000  0.95270000  1.0
  C  C123  1  0.65734000  0.21460000  0.45270000  1.0
  C  C124  1  0.96460000  0.09266000  0.70270000  1.0
  C  C125  1  0.46460000  0.59266000  0.20270000  1.0
  C  C126  1  0.53540000  0.90734000  0.20270000  1.0
  C  C127  1  0.03540000  0.40734000  0.70270000  1.0
  C  C128  1  0.15734000  0.28540000  0.04730000  1.0
  C  C129  1  0.65734000  0.78540000  0.54730000  1.0
  C  C130  1  0.34266000  0.71460000  0.54730000  1.0
  C  C131  1  0.84266000  0.21460000  0.04730000  1.0
  C  C132  1  0.53540000  0.09266000  0.79730000  1.0
  C  C133  1  0.03540000  0.59266000  0.29730000  1.0
  C  C134  1  0.96460000  0.90734000  0.29730000  1.0
  C  C135  1  0.46460000  0.40734000  0.79730000  1.0
  C  C136  1  0.65734000  0.71460000  0.54730000  1.0
  C  C137  1  0.15734000  0.21460000  0.04730000  1.0
  C  C138  1  0.84266000  0.28540000  0.04730000  1.0
  C  C139  1  0.34266000  0.78540000  0.54730000  1.0
  C  C140  1  0.03540000  0.90734000  0.29730000  1.0
  C  C141  1  0.53540000  0.40734000  0.79730000  1.0
  C  C142  1  0.46460000  0.09266000  0.79730000  1.0
  C  C143  1  0.96460000  0.59266000  0.29730000  1.0
  C  C144  1  0.84266000  0.71460000  0.95270000  1.0
  C  C145  1  0.34266000  0.21460000  0.45270000  1.0
  C  C146  1  0.65734000  0.28540000  0.45270000  1.0
  C  C147  1  0.15734000  0.78540000  0.95270000  1.0
  C  C148  1  0.46460000  0.90734000  0.20270000  1.0
  C  C149  1  0.96460000  0.40734000  0.70270000  1.0
  C  C150  1  0.03540000  0.09266000  0.70270000  1.0
  C  C151  1  0.53540000  0.59266000  0.20270000  1.0
  N  N152  1  0.38334000  0.27323000  0.32670000  1.0
  N  N153  1  0.33060000  0.33390000  0.49100000  1.0
  N  N154  1  0.88334000  0.77323000  0.82670000  1.0
  N  N155  1  0.83060000  0.83390000  0.99100000  1.0
  N  N156  1  0.11666000  0.72677000  0.82670000  1.0
  N  N157  1  0.16940000  0.66610000  0.99100000  1.0
  N  N158  1  0.61666000  0.22677000  0.32670000  1.0
  N  N159  1  0.66940000  0.16610000  0.49100000  1.0
  N  N160  1  0.97677000  0.13334000  0.57670000  1.0
  N  N161  1  0.91610000  0.08060000  0.74100000  1.0
  N  N162  1  0.47677000  0.63334000  0.07670000  1.0
  N  N163  1  0.41610000  0.58060000  0.24100000  1.0
  N  N164  1  0.52323000  0.86666000  0.07670000  1.0
  N  N165  1  0.58390000  0.91940000  0.24100000  1.0
  N  N166  1  0.02323000  0.36666000  0.57670000  1.0
  N  N167  1  0.08390000  0.41940000  0.74100000  1.0
  N  N168  1  0.11666000  0.27323000  0.17330000  1.0
  N  N169  1  0.16940000  0.33390000  0.00900000  1.0
  N  N170  1  0.61666000  0.77323000  0.67330000  1.0
  N  N171  1  0.66940000  0.83390000  0.50900000  1.0
  N  N172  1  0.38334000  0.72677000  0.67330000  1.0
  N  N173  1  0.33060000  0.66610000  0.50900000  1.0
  N  N174  1  0.88334000  0.22677000  0.17330000  1.0
  N  N175  1  0.83060000  0.16610000  0.00900000  1.0
  N  N176  1  0.52323000  0.13334000  0.92330000  1.0
  N  N177  1  0.58390000  0.08060000  0.75900000  1.0
  N  N178  1  0.02323000  0.63334000  0.42330000  1.0
  N  N179  1  0.08390000  0.58060000  0.25900000  1.0
  N  N180  1  0.97677000  0.86666000  0.42330000  1.0
  N  N181  1  0.91610000  0.91940000  0.25900000  1.0
  N  N182  1  0.47677000  0.36666000  0.92330000  1.0
  N  N183  1  0.41610000  0.41940000  0.75900000  1.0
  N  N184  1  0.61666000  0.72677000  0.67330000  1.0
  N  N185  1  0.66940000  0.66610000  0.50900000  1.0
  N  N186  1  0.11666000  0.22677000  0.17330000  1.0
  N  N187  1  0.16940000  0.16610000  0.00900000  1.0
  N  N188  1  0.88334000  0.27323000  0.17330000  1.0
  N  N189  1  0.83060000  0.33390000  0.00900000  1.0
  N  N190  1  0.38334000  0.77323000  0.67330000  1.0
  N  N191  1  0.33060000  0.83390000  0.50900000  1.0
  N  N192  1  0.02323000  0.86666000  0.42330000  1.0
  N  N193  1  0.08390000  0.91940000  0.25900000  1.0
  N  N194  1  0.52323000  0.36666000  0.92330000  1.0
  N  N195  1  0.58390000  0.41940000  0.75900000  1.0
  N  N196  1  0.47677000  0.13334000  0.92330000  1.0
  N  N197  1  0.41610000  0.08060000  0.75900000  1.0
  N  N198  1  0.97677000  0.63334000  0.42330000  1.0
  N  N199  1  0.91610000  0.58060000  0.25900000  1.0
  N  N200  1  0.88334000  0.72677000  0.82670000  1.0
  N  N201  1  0.83060000  0.66610000  0.99100000  1.0
  N  N202  1  0.38334000  0.22677000  0.32670000  1.0
  N  N203  1  0.33060000  0.16610000  0.49100000  1.0
  N  N204  1  0.61666000  0.27323000  0.32670000  1.0
  N  N205  1  0.66940000  0.33390000  0.49100000  1.0
  N  N206  1  0.11666000  0.77323000  0.82670000  1.0
  N  N207  1  0.16940000  0.83390000  0.99100000  1.0
  N  N208  1  0.47677000  0.86666000  0.07670000  1.0
  N  N209  1  0.41610000  0.91940000  0.24100000  1.0
  N  N210  1  0.97677000  0.36666000  0.57670000  1.0
  N  N211  1  0.91610000  0.41940000  0.74100000  1.0
  N  N212  1  0.02323000  0.13334000  0.57670000  1.0
  N  N213  1  0.08390000  0.08060000  0.74100000  1.0
  N  N214  1  0.52323000  0.63334000  0.07670000  1.0
  N  N215  1  0.58390000  0.58060000  0.24100000  1.0
  N  N216  1  0.31650000  0.25000000  0.53400000  1.0
  N  N217  1  0.18350000  0.75000000  0.03400000  1.0
  N  N218  1  0.00000000  0.06650000  0.78400000  1.0
  N  N219  1  0.50000000  0.56650000  0.28400000  1.0
  N  N220  1  0.50000000  0.93350000  0.28400000  1.0
  N  N221  1  0.00000000  0.43350000  0.78400000  1.0
  N  N222  1  0.18350000  0.25000000  0.96600000  1.0
  N  N223  1  0.31650000  0.75000000  0.46600000  1.0
  N  N224  1  0.81650000  0.25000000  0.96600000  1.0
  N  N225  1  0.50000000  0.06650000  0.71600000  1.0
  N  N226  1  0.00000000  0.56650000  0.21600000  1.0
  N  N227  1  0.00000000  0.93350000  0.21600000  1.0
  N  N228  1  0.50000000  0.43350000  0.71600000  1.0
  N  N229  1  0.68350000  0.75000000  0.46600000  1.0
  N  N230  1  0.81650000  0.75000000  0.03400000  1.0
  N  N231  1  0.68350000  0.25000000  0.53400000  1.0
