# generated using pymatgen
data_Zn3H10C23O13
_symmetry_space_group_name_H-M   'P 1'
_cell_length_a   16.40710000
_cell_length_b   11.80750000
_cell_length_c   15.28320000
_cell_angle_alpha   90.00000000
_cell_angle_beta   90.00000000
_cell_angle_gamma   90.00000000
_symmetry_Int_Tables_number   1
_chemical_formula_structural   Zn3H10C23O13
_chemical_formula_sum   'Zn6 H20 C46 O26'
_cell_volume   2960.76593793
_cell_formula_units_Z   2
loop_
 _symmetry_equiv_pos_site_id
 _symmetry_equiv_pos_as_xyz
  1  'x, y, z'
loop_
 _atom_site_type_symbol
 _atom_site_label
 _atom_site_symmetry_multiplicity
 _atom_site_fract_x
 _atom_site_fract_y
 _atom_site_fract_z
 _atom_site_occupancy
  Zn  Zn0  1  0.09964000  0.59755000  0.17098000  1.0
  Zn  Zn1  1  0.40036000  0.40245000  0.67098000  1.0
  Zn  Zn2  1  0.59964000  0.40245000  0.67098000  1.0
  Zn  Zn3  1  0.90036000  0.59755000  0.17098000  1.0
  Zn  Zn4  1  0.00000000  0.35077000  0.11828000  1.0
  Zn  Zn5  1  0.50000000  0.64923000  0.61828000  1.0
  H  H6  1  0.22770000  0.45670000  0.39400000  1.0
  H  H7  1  0.23420000  0.16780000  0.52980000  1.0
  H  H8  1  0.10660000  0.18020000  0.30830000  1.0
  H  H9  1  0.12250000  0.88130000  0.33740000  1.0
  H  H10  1  0.27230000  0.54330000  0.89400000  1.0
  H  H11  1  0.26580000  0.83220000  0.02980000  1.0
  H  H12  1  0.39340000  0.81980000  0.80830000  1.0
  H  H13  1  0.37750000  0.11870000  0.83740000  1.0
  H  H14  1  0.72770000  0.54330000  0.89400000  1.0
  H  H15  1  0.73420000  0.83220000  0.02980000  1.0
  H  H16  1  0.60660000  0.81980000  0.80830000  1.0
  H  H17  1  0.62250000  0.11870000  0.83740000  1.0
  H  H18  1  0.77230000  0.45670000  0.39400000  1.0
  H  H19  1  0.76580000  0.16780000  0.52980000  1.0
  H  H20  1  0.89340000  0.18020000  0.30830000  1.0
  H  H21  1  0.87750000  0.88130000  0.33740000  1.0
  H  H22  1  0.00000000  0.56020000  0.05250000  1.0
  H  H23  1  0.00000000  0.11630000  0.47250000  1.0
  H  H24  1  0.50000000  0.43980000  0.55250000  1.0
  H  H25  1  0.50000000  0.88370000  0.97250000  1.0
  C  C26  1  0.16030000  0.33070000  0.33680000  1.0
  C  C27  1  0.21310000  0.38110000  0.40030000  1.0
  C  C28  1  0.24260000  0.32120000  0.47000000  1.0
  C  C29  1  0.21630000  0.20850000  0.48140000  1.0
  C  C30  1  0.16570000  0.15870000  0.42340000  1.0
  C  C31  1  0.13890000  0.21700000  0.34950000  1.0
  C  C32  1  0.12940000  0.39630000  0.26370000  1.0
  C  C33  1  0.29810000  0.37700000  0.53330000  1.0
  C  C34  1  0.07100000  0.00690000  0.41060000  1.0
  C  C35  1  0.07310000  0.91170000  0.35590000  1.0
  C  C36  1  0.33970000  0.66930000  0.83680000  1.0
  C  C37  1  0.28690000  0.61890000  0.90030000  1.0
  C  C38  1  0.25740000  0.67880000  0.97000000  1.0
  C  C39  1  0.28370000  0.79150000  0.98140000  1.0
  C  C40  1  0.33430000  0.84130000  0.92340000  1.0
  C  C41  1  0.36110000  0.78300000  0.84950000  1.0
  C  C42  1  0.37060000  0.60370000  0.76370000  1.0
  C  C43  1  0.20190000  0.62300000  0.03330000  1.0
  C  C44  1  0.42900000  0.99310000  0.91060000  1.0
  C  C45  1  0.42690000  0.08830000  0.85590000  1.0
  C  C46  1  0.66030000  0.66930000  0.83680000  1.0
  C  C47  1  0.71310000  0.61890000  0.90030000  1.0
  C  C48  1  0.74260000  0.67880000  0.97000000  1.0
  C  C49  1  0.71630000  0.79150000  0.98140000  1.0
  C  C50  1  0.66570000  0.84130000  0.92340000  1.0
  C  C51  1  0.63890000  0.78300000  0.84950000  1.0
  C  C52  1  0.62940000  0.60370000  0.76370000  1.0
  C  C53  1  0.79810000  0.62300000  0.03330000  1.0
  C  C54  1  0.57100000  0.99310000  0.91060000  1.0
  C  C55  1  0.57310000  0.08830000  0.85590000  1.0
  C  C56  1  0.83970000  0.33070000  0.33680000  1.0
  C  C57  1  0.78690000  0.38110000  0.40030000  1.0
  C  C58  1  0.75740000  0.32120000  0.47000000  1.0
  C  C59  1  0.78370000  0.20850000  0.48140000  1.0
  C  C60  1  0.83430000  0.15870000  0.42340000  1.0
  C  C61  1  0.86110000  0.21700000  0.34950000  1.0
  C  C62  1  0.87060000  0.39630000  0.26370000  1.0
  C  C63  1  0.70190000  0.37700000  0.53330000  1.0
  C  C64  1  0.92900000  0.00690000  0.41060000  1.0
  C  C65  1  0.92690000  0.91170000  0.35590000  1.0
  C  C66  1  0.00000000  0.05270000  0.43650000  1.0
  C  C67  1  0.00000000  0.86430000  0.33030000  1.0
  C  C68  1  0.00000000  0.75840000  0.27230000  1.0
  C  C69  1  0.50000000  0.94730000  0.93650000  1.0
  C  C70  1  0.50000000  0.13570000  0.83030000  1.0
  C  C71  1  0.50000000  0.24160000  0.77230000  1.0
  O  O72  1  0.08580000  0.34350000  0.20800000  1.0
  O  O73  1  0.14840000  0.49640000  0.25650000  1.0
  O  O74  1  0.30960000  0.48020000  0.52670000  1.0
  O  O75  1  0.32510000  0.32150000  0.59370000  1.0
  O  O76  1  0.14540000  0.04740000  0.43870000  1.0
  O  O77  1  0.06590000  0.72250000  0.25030000  1.0
  O  O78  1  0.41420000  0.65650000  0.70800000  1.0
  O  O79  1  0.35160000  0.50360000  0.75650000  1.0
  O  O80  1  0.19040000  0.51980000  0.02670000  1.0
  O  O81  1  0.17490000  0.67850000  0.09370000  1.0
  O  O82  1  0.35460000  0.95260000  0.93870000  1.0
  O  O83  1  0.43410000  0.27750000  0.75030000  1.0
  O  O84  1  0.58580000  0.65650000  0.70800000  1.0
  O  O85  1  0.64840000  0.50360000  0.75650000  1.0
  O  O86  1  0.80960000  0.51980000  0.02670000  1.0
  O  O87  1  0.82510000  0.67850000  0.09370000  1.0
  O  O88  1  0.64540000  0.95260000  0.93870000  1.0
  O  O89  1  0.56590000  0.27750000  0.75030000  1.0
  O  O90  1  0.91420000  0.34350000  0.20800000  1.0
  O  O91  1  0.85160000  0.49640000  0.25650000  1.0
  O  O92  1  0.69040000  0.48020000  0.52670000  1.0
  O  O93  1  0.67490000  0.32150000  0.59370000  1.0
  O  O94  1  0.85460000  0.04740000  0.43870000  1.0
  O  O95  1  0.93410000  0.72250000  0.25030000  1.0
  O  O96  1  0.00000000  0.53630000  0.11400000  1.0
  O  O97  1  0.50000000  0.46370000  0.61400000  1.0
