# generated using pymatgen
data_Zn3As3H2(CO8)2
_symmetry_space_group_name_H-M   'P 1'
_cell_length_a   16.08570000
_cell_length_b   9.19730000
_cell_length_c   15.42160000
_cell_angle_alpha   90.00000000
_cell_angle_beta   112.03300000
_cell_angle_gamma   90.00000000
_symmetry_Int_Tables_number   1
_chemical_formula_structural   Zn3As3H2(CO8)2
_chemical_formula_sum   'Zn12 As12 H8 C8 O64'
_cell_volume   2114.92254654
_cell_formula_units_Z   4
loop_
 _symmetry_equiv_pos_site_id
 _symmetry_equiv_pos_as_xyz
  1  'x, y, z'
loop_
 _atom_site_type_symbol
 _atom_site_label
 _atom_site_symmetry_multiplicity
 _atom_site_fract_x
 _atom_site_fract_y
 _atom_site_fract_z
 _atom_site_occupancy
  Zn  Zn0  1  0.89358000  0.25085000  0.97465000  1.0
  Zn  Zn1  1  0.64665000  0.46904000  0.01269000  1.0
  Zn  Zn2  1  0.59249000  0.43346000  0.62934000  1.0
  Zn  Zn3  1  0.10642000  0.75085000  0.52535000  1.0
  Zn  Zn4  1  0.35335000  0.96904000  0.48731000  1.0
  Zn  Zn5  1  0.40751000  0.93346000  0.87066000  1.0
  Zn  Zn6  1  0.10642000  0.74915000  0.02535000  1.0
  Zn  Zn7  1  0.35335000  0.53096000  0.98731000  1.0
  Zn  Zn8  1  0.40751000  0.56654000  0.37066000  1.0
  Zn  Zn9  1  0.89358000  0.24915000  0.47465000  1.0
  Zn  Zn10  1  0.64665000  0.03096000  0.51269000  1.0
  Zn  Zn11  1  0.59249000  0.06654000  0.12934000  1.0
  As  As12  1  0.71917000  0.44957000  0.84055000  1.0
  As  As13  1  0.77730000  0.20336000  0.11857000  1.0
  As  As14  1  0.52912000  0.72967000  0.04077000  1.0
  As  As15  1  0.28083000  0.94957000  0.65945000  1.0
  As  As16  1  0.22270000  0.70336000  0.38143000  1.0
  As  As17  1  0.47088000  0.22967000  0.45923000  1.0
  As  As18  1  0.28083000  0.55043000  0.15945000  1.0
  As  As19  1  0.22270000  0.79664000  0.88143000  1.0
  As  As20  1  0.47088000  0.27033000  0.95923000  1.0
  As  As21  1  0.71917000  0.05043000  0.34055000  1.0
  As  As22  1  0.77730000  0.29664000  0.61857000  1.0
  As  As23  1  0.52912000  0.77033000  0.54077000  1.0
  H  H24  1  0.76020000  0.56760000  0.74240000  1.0
  H  H25  1  0.85790000  0.21310000  0.26500000  1.0
  H  H26  1  0.23980000  0.06760000  0.75760000  1.0
  H  H27  1  0.14210000  0.71310000  0.23500000  1.0
  H  H28  1  0.23980000  0.43240000  0.25760000  1.0
  H  H29  1  0.14210000  0.78690000  0.73500000  1.0
  H  H30  1  0.76020000  0.93240000  0.24240000  1.0
  H  H31  1  0.85790000  0.28690000  0.76500000  1.0
  C  C32  1  0.98530000  0.52340000  0.03980000  1.0
  C  C33  1  0.02550000  0.02120000  0.05220000  1.0
  C  C34  1  0.01470000  0.02340000  0.46020000  1.0
  C  C35  1  0.97450000  0.52120000  0.44780000  1.0
  C  C36  1  0.01470000  0.47660000  0.96020000  1.0
  C  C37  1  0.97450000  0.97880000  0.94780000  1.0
  C  C38  1  0.98530000  0.97660000  0.53980000  1.0
  C  C39  1  0.02550000  0.47880000  0.55220000  1.0
  O  O40  1  0.71550000  0.52390000  0.93720000  1.0
  O  O41  1  0.79210000  0.31470000  0.85470000  1.0
  O  O42  1  0.61700000  0.40430000  0.76390000  1.0
  O  O43  1  0.75610000  0.59400000  0.79140000  1.0
  O  O44  1  0.72790000  0.36200000  0.11950000  1.0
  O  O45  1  0.80930000  0.16890000  0.03080000  1.0
  O  O46  1  0.71210000  0.05960000  0.12240000  1.0
  O  O47  1  0.87170000  0.19630000  0.22000000  1.0
  O  O48  1  0.53480000  0.87820000  0.10520000  1.0
  O  O49  1  0.63260000  0.66270000  0.06160000  1.0
  O  O50  1  0.48190000  0.76770000  0.92570000  1.0
  O  O51  1  0.46670000  0.60780000  0.07030000  1.0
  O  O52  1  0.93130000  0.44030000  0.05820000  1.0
  O  O53  1  0.00220000  0.13650000  0.07970000  1.0
  O  O54  1  0.08680000  0.93470000  0.10060000  1.0
  O  O55  1  0.01530000  0.64000000  0.08060000  1.0
  O  O56  1  0.28450000  0.02390000  0.56280000  1.0
  O  O57  1  0.20790000  0.81470000  0.64530000  1.0
  O  O58  1  0.38300000  0.90430000  0.73610000  1.0
  O  O59  1  0.24390000  0.09400000  0.70860000  1.0
  O  O60  1  0.27210000  0.86200000  0.38050000  1.0
  O  O61  1  0.19070000  0.66890000  0.46920000  1.0
  O  O62  1  0.28790000  0.55960000  0.37760000  1.0
  O  O63  1  0.12830000  0.69630000  0.28000000  1.0
  O  O64  1  0.46520000  0.37820000  0.39480000  1.0
  O  O65  1  0.36740000  0.16270000  0.43840000  1.0
  O  O66  1  0.51810000  0.26770000  0.57430000  1.0
  O  O67  1  0.53330000  0.10780000  0.42970000  1.0
  O  O68  1  0.06870000  0.94030000  0.44180000  1.0
  O  O69  1  0.99780000  0.63650000  0.42030000  1.0
  O  O70  1  0.91320000  0.43470000  0.39940000  1.0
  O  O71  1  0.98470000  0.14000000  0.41940000  1.0
  O  O72  1  0.28450000  0.47610000  0.06280000  1.0
  O  O73  1  0.20790000  0.68530000  0.14530000  1.0
  O  O74  1  0.38300000  0.59570000  0.23610000  1.0
  O  O75  1  0.24390000  0.40600000  0.20860000  1.0
  O  O76  1  0.27210000  0.63800000  0.88050000  1.0
  O  O77  1  0.19070000  0.83110000  0.96920000  1.0
  O  O78  1  0.28790000  0.94040000  0.87760000  1.0
  O  O79  1  0.12830000  0.80370000  0.78000000  1.0
  O  O80  1  0.46520000  0.12180000  0.89480000  1.0
  O  O81  1  0.36740000  0.33730000  0.93840000  1.0
  O  O82  1  0.51810000  0.23230000  0.07430000  1.0
  O  O83  1  0.53330000  0.39220000  0.92970000  1.0
  O  O84  1  0.06870000  0.55970000  0.94180000  1.0
  O  O85  1  0.99780000  0.86350000  0.92030000  1.0
  O  O86  1  0.91320000  0.06530000  0.89940000  1.0
  O  O87  1  0.98470000  0.36000000  0.91940000  1.0
  O  O88  1  0.71550000  0.97610000  0.43720000  1.0
  O  O89  1  0.79210000  0.18530000  0.35470000  1.0
  O  O90  1  0.61700000  0.09570000  0.26390000  1.0
  O  O91  1  0.75610000  0.90600000  0.29140000  1.0
  O  O92  1  0.72790000  0.13800000  0.61950000  1.0
  O  O93  1  0.80930000  0.33110000  0.53080000  1.0
  O  O94  1  0.71210000  0.44040000  0.62240000  1.0
  O  O95  1  0.87170000  0.30370000  0.72000000  1.0
  O  O96  1  0.53480000  0.62180000  0.60520000  1.0
  O  O97  1  0.63260000  0.83730000  0.56160000  1.0
  O  O98  1  0.48190000  0.73230000  0.42570000  1.0
  O  O99  1  0.46670000  0.89220000  0.57030000  1.0
  O  O100  1  0.93130000  0.05970000  0.55820000  1.0
  O  O101  1  0.00220000  0.36350000  0.57970000  1.0
  O  O102  1  0.08680000  0.56530000  0.60060000  1.0
  O  O103  1  0.01530000  0.86000000  0.58060000  1.0
