# generated using pymatgen
data_MgCd2Mo12P8H19C2N2(ClO25)2
_symmetry_space_group_name_H-M   'P 1'
_cell_length_a   12.00140000
_cell_length_b   14.68600000
_cell_length_c   21.17600000
_cell_angle_alpha   81.09300000
_cell_angle_beta   83.08000000
_cell_angle_gamma   76.57100000
_symmetry_Int_Tables_number   1
_chemical_formula_structural   MgCd2Mo12P8H19C2N2(ClO25)2
_chemical_formula_sum   'Mg2 Cd4 Mo24 P16 H38 C4 N4 Cl4 O100'
_cell_volume   3572.59713325
_cell_formula_units_Z   2
loop_
 _symmetry_equiv_pos_site_id
 _symmetry_equiv_pos_as_xyz
  1  'x, y, z'
loop_
 _atom_site_type_symbol
 _atom_site_label
 _atom_site_symmetry_multiplicity
 _atom_site_fract_x
 _atom_site_fract_y
 _atom_site_fract_z
 _atom_site_occupancy
  Mg  Mg0  1  0.26170000  0.07630000  0.34020000  1.0
  Mg  Mg1  1  0.73830000  0.92370000  0.65980000  1.0
  Cd  Cd2  1  0.00986000  0.37902000  0.12832000  1.0
  Cd  Cd3  1  0.99014000  0.62098000  0.87168000  1.0
  Cd  Cd4  1  0.00000000  0.00000000  0.00000000  1.0
  Cd  Cd5  1  0.50000000  0.50000000  0.50000000  1.0
  Mo  Mo6  1  0.05147000  0.01909000  0.17163000  1.0
  Mo  Mo7  1  0.80525000  0.85104000  0.95142000  1.0
  Mo  Mo8  1  0.91929000  0.75503000  0.04553000  1.0
  Mo  Mo9  1  0.20848000  0.76408000  0.05561000  1.0
  Mo  Mo10  1  0.31281000  0.86159000  0.96360000  1.0
  Mo  Mo11  1  0.83656000  0.01124000  0.16885000  1.0
  Mo  Mo12  1  0.80225000  0.47974000  0.41187000  1.0
  Mo  Mo13  1  0.56770000  0.52111000  0.31719000  1.0
  Mo  Mo14  1  0.38269000  0.64771000  0.34343000  1.0
  Mo  Mo15  1  0.36503000  0.77069000  0.47367000  1.0
  Mo  Mo16  1  0.53904000  0.73857000  0.54229000  1.0
  Mo  Mo17  1  0.78999000  0.56863000  0.51033000  1.0
  Mo  Mo18  1  0.94853000  0.98091000  0.82837000  1.0
  Mo  Mo19  1  0.19475000  0.14896000  0.04858000  1.0
  Mo  Mo20  1  0.08071000  0.24497000  0.95447000  1.0
  Mo  Mo21  1  0.79152000  0.23592000  0.94439000  1.0
  Mo  Mo22  1  0.68719000  0.13841000  0.03640000  1.0
  Mo  Mo23  1  0.16344000  0.98876000  0.83115000  1.0
  Mo  Mo24  1  0.19775000  0.52026000  0.58813000  1.0
  Mo  Mo25  1  0.43230000  0.47889000  0.68281000  1.0
  Mo  Mo26  1  0.61731000  0.35229000  0.65657000  1.0
  Mo  Mo27  1  0.63497000  0.22931000  0.52633000  1.0
  Mo  Mo28  1  0.46096000  0.26143000  0.45771000  1.0
  Mo  Mo29  1  0.21001000  0.43137000  0.48967000  1.0
  P  P30  1  0.90224000  0.21631000  0.09088000  1.0
  P  P31  1  0.18840000  0.18099000  0.19937000  1.0
  P  P32  1  0.42756000  0.85262000  0.81240000  1.0
  P  P33  1  0.10445000  0.57700000  0.11082000  1.0
  P  P34  1  0.62495000  0.69923000  0.38813000  1.0
  P  P35  1  0.83717000  0.51234000  0.25012000  1.0
  P  P36  1  0.25533000  0.87075000  0.33985000  1.0
  P  P37  1  0.80208000  0.78197000  0.54565000  1.0
  P  P38  1  0.09776000  0.78369000  0.90912000  1.0
  P  P39  1  0.81160000  0.81901000  0.80063000  1.0
  P  P40  1  0.57244000  0.14738000  0.18760000  1.0
  P  P41  1  0.89555000  0.42300000  0.88918000  1.0
  P  P42  1  0.37505000  0.30077000  0.61187000  1.0
  P  P43  1  0.16283000  0.48766000  0.74988000  1.0
  P  P44  1  0.74467000  0.12925000  0.66015000  1.0
  P  P45  1  0.19792000  0.21803000  0.45435000  1.0
  H  H46  1  0.40930000  0.98470000  0.40500000  1.0
  H  H47  1  0.40960000  0.08200000  0.40470000  1.0
  H  H48  1  0.76470000  0.94710000  0.37130000  1.0
  H  H49  1  0.73940000  0.90270000  0.43610000  1.0
  H  H50  1  0.69140000  0.87910000  0.38250000  1.0
  H  H51  1  0.58620000  0.87520000  0.78000000  1.0
  H  H52  1  0.19560000  0.97630000  0.07710000  1.0
  H  H53  1  0.01730000  0.84440000  0.10460000  1.0
  H  H54  1  0.22430000  0.03460000  0.92920000  1.0
  H  H55  1  0.92510000  0.60850000  0.20440000  1.0
  H  H56  1  0.10580000  0.90630000  0.38490000  1.0
  H  H57  1  0.64600000  0.39240000  0.40300000  1.0
  H  H58  1  0.28520000  0.63700000  0.45340000  1.0
  H  H59  1  0.61850000  0.57270000  0.59110000  1.0
  H  H60  1  0.94780000  0.56110000  0.42820000  1.0
  H  H61  1  0.55140000  0.96910000  0.32870000  1.0
  H  H62  1  0.55000000  0.07650000  0.32650000  1.0
  H  H63  1  0.57370000  0.98010000  0.44660000  1.0
  H  H64  1  0.64280000  0.05330000  0.41000000  1.0
  H  H65  1  0.59070000  0.01530000  0.59500000  1.0
  H  H66  1  0.59040000  0.91800000  0.59530000  1.0
  H  H67  1  0.23530000  0.05290000  0.62870000  1.0
  H  H68  1  0.26060000  0.09730000  0.56390000  1.0
  H  H69  1  0.30860000  0.12090000  0.61750000  1.0
  H  H70  1  0.41380000  0.12480000  0.22000000  1.0
  H  H71  1  0.80440000  0.02370000  0.92290000  1.0
  H  H72  1  0.98270000  0.15560000  0.89540000  1.0
  H  H73  1  0.77570000  0.96540000  0.07080000  1.0
  H  H74  1  0.07490000  0.39150000  0.79560000  1.0
  H  H75  1  0.89420000  0.09370000  0.61510000  1.0
  H  H76  1  0.35400000  0.60760000  0.59700000  1.0
  H  H77  1  0.71480000  0.36300000  0.54660000  1.0
  H  H78  1  0.38150000  0.42730000  0.40890000  1.0
  H  H79  1  0.05220000  0.43890000  0.57180000  1.0
  H  H80  1  0.44860000  0.03090000  0.67130000  1.0
  H  H81  1  0.45000000  0.92350000  0.67350000  1.0
  H  H82  1  0.42630000  0.01990000  0.55340000  1.0
  H  H83  1  0.35720000  0.94670000  0.59000000  1.0
  C  C84  1  0.53550000  0.02070000  0.35440000  1.0
  C  C85  1  0.61650000  0.99690000  0.40630000  1.0
  C  C86  1  0.46450000  0.97930000  0.64560000  1.0
  C  C87  1  0.38350000  0.00310000  0.59370000  1.0
  N  N88  1  0.41480000  0.03800000  0.37860000  1.0
  N  N89  1  0.71140000  0.92520000  0.39830000  1.0
  N  N90  1  0.58520000  0.96200000  0.62140000  1.0
  N  N91  1  0.28860000  0.07480000  0.60170000  1.0
  Cl  Cl92  1  0.83400000  0.90490000  0.21080000  1.0
  Cl  Cl93  1  0.10250000  0.91420000  0.21340000  1.0
  Cl  Cl94  1  0.16600000  0.09510000  0.78920000  1.0
  Cl  Cl95  1  0.89750000  0.08580000  0.78660000  1.0
  O  O96  1  0.02210000  0.15460000  0.10790000  1.0
  O  O97  1  0.91220000  0.24990000  0.01810000  1.0
  O  O98  1  0.81460000  0.15240000  0.10450000  1.0
  O  O99  1  0.87010000  0.29720000  0.13050000  1.0
  O  O100  1  0.13290000  0.09450000  0.22040000  1.0
  O  O101  1  0.24560000  0.17730000  0.13060000  1.0
  O  O102  1  0.10150000  0.27340000  0.20340000  1.0
  O  O103  1  0.28260000  0.17230000  0.24460000  1.0
  O  O104  1  0.00270000  0.61730000  0.06680000  1.0
  O  O105  1  0.20650000  0.62210000  0.07940000  1.0
  O  O106  1  0.13890000  0.47100000  0.10840000  1.0
  O  O107  1  0.06730000  0.60250000  0.17820000  1.0
  O  O108  1  0.42260000  0.82790000  0.88590000  1.0
  O  O109  1  0.31460000  0.91800000  0.79070000  1.0
  O  O110  1  0.45450000  0.76290000  0.78100000  1.0
  O  O111  1  0.52250000  0.91030000  0.79160000  1.0
  O  O112  1  0.19590000  0.01600000  0.10230000  1.0
  O  O113  1  0.87120000  0.71580000  0.97030000  1.0
  O  O114  1  0.03870000  0.78680000  0.09860000  1.0
  O  O115  1  0.32820000  0.72670000  0.98890000  1.0
  O  O116  1  0.26270000  0.99450000  0.90550000  1.0
  O  O117  1  0.91130000  0.07460000  0.22020000  1.0
  O  O118  1  0.89070000  0.88990000  0.01180000  1.0
  O  O119  1  0.16890000  0.89740000  0.01710000  1.0
  O  O120  1  0.97190000  0.98090000  0.10690000  1.0
  O  O121  1  0.67000000  0.60090000  0.36430000  1.0
  O  O122  1  0.49200000  0.71910000  0.39060000  1.0
  O  O123  1  0.65800000  0.69040000  0.45780000  1.0
  O  O124  1  0.67300000  0.77480000  0.34470000  1.0
  O  O125  1  0.87630000  0.49630000  0.31830000  1.0
  O  O126  1  0.70840000  0.51720000  0.25140000  1.0
  O  O127  1  0.90700000  0.43570000  0.21400000  1.0
  O  O128  1  0.85460000  0.61160000  0.21730000  1.0
  O  O129  1  0.32070000  0.78600000  0.30600000  1.0
  O  O130  1  0.31440000  0.87520000  0.40030000  1.0
  O  O131  1  0.27920000  0.96040000  0.29420000  1.0
  O  O132  1  0.13030000  0.87230000  0.35490000  1.0
  O  O133  1  0.66840000  0.80880000  0.54720000  1.0
  O  O134  1  0.84670000  0.68160000  0.52640000  1.0
  O  O135  1  0.85130000  0.85010000  0.49470000  1.0
  O  O136  1  0.16350000  0.21390000  0.38840000  1.0
  O  O137  1  0.46490000  0.53520000  0.39570000  1.0
  O  O138  1  0.44950000  0.65330000  0.52020000  1.0
  O  O139  1  0.68370000  0.42030000  0.37250000  1.0
  O  O140  1  0.50390000  0.64530000  0.27310000  1.0
  O  O141  1  0.29120000  0.68670000  0.42790000  1.0
  O  O142  1  0.47480000  0.84570000  0.48170000  1.0
  O  O143  1  0.65490000  0.61630000  0.57830000  1.0
  O  O144  1  0.87530000  0.57780000  0.42740000  1.0
  O  O145  1  0.68880000  0.49380000  0.48620000  1.0
  O  O146  1  0.97790000  0.84540000  0.89210000  1.0
  O  O147  1  0.08780000  0.75010000  0.98190000  1.0
  O  O148  1  0.18540000  0.84760000  0.89550000  1.0
  O  O149  1  0.12990000  0.70280000  0.86950000  1.0
  O  O150  1  0.86710000  0.90550000  0.77960000  1.0
  O  O151  1  0.75440000  0.82270000  0.86940000  1.0
  O  O152  1  0.89850000  0.72660000  0.79660000  1.0
  O  O153  1  0.71740000  0.82770000  0.75540000  1.0
  O  O154  1  0.99730000  0.38270000  0.93320000  1.0
  O  O155  1  0.79350000  0.37790000  0.92060000  1.0
  O  O156  1  0.86110000  0.52900000  0.89160000  1.0
  O  O157  1  0.93270000  0.39750000  0.82180000  1.0
  O  O158  1  0.57740000  0.17210000  0.11410000  1.0
  O  O159  1  0.68540000  0.08200000  0.20930000  1.0
  O  O160  1  0.54550000  0.23710000  0.21900000  1.0
  O  O161  1  0.47750000  0.08970000  0.20840000  1.0
  O  O162  1  0.80410000  0.98400000  0.89770000  1.0
  O  O163  1  0.12880000  0.28420000  0.02970000  1.0
  O  O164  1  0.96130000  0.21320000  0.90140000  1.0
  O  O165  1  0.67180000  0.27330000  0.01110000  1.0
  O  O166  1  0.73730000  0.00550000  0.09450000  1.0
  O  O167  1  0.08870000  0.92540000  0.77980000  1.0
  O  O168  1  0.10930000  0.11010000  0.98820000  1.0
  O  O169  1  0.83110000  0.10260000  0.98290000  1.0
  O  O170  1  0.02810000  0.01910000  0.89310000  1.0
  O  O171  1  0.33000000  0.39910000  0.63570000  1.0
  O  O172  1  0.50800000  0.28090000  0.60940000  1.0
  O  O173  1  0.34200000  0.30960000  0.54220000  1.0
  O  O174  1  0.32700000  0.22520000  0.65530000  1.0
  O  O175  1  0.12370000  0.50370000  0.68170000  1.0
  O  O176  1  0.29160000  0.48280000  0.74860000  1.0
  O  O177  1  0.09300000  0.56430000  0.78600000  1.0
  O  O178  1  0.14540000  0.38840000  0.78270000  1.0
  O  O179  1  0.67930000  0.21400000  0.69400000  1.0
  O  O180  1  0.68560000  0.12480000  0.59970000  1.0
  O  O181  1  0.72080000  0.03960000  0.70580000  1.0
  O  O182  1  0.86970000  0.12770000  0.64510000  1.0
  O  O183  1  0.33160000  0.19120000  0.45280000  1.0
  O  O184  1  0.15330000  0.31840000  0.47360000  1.0
  O  O185  1  0.14870000  0.14990000  0.50530000  1.0
  O  O186  1  0.83650000  0.78610000  0.61160000  1.0
  O  O187  1  0.53510000  0.46480000  0.60430000  1.0
  O  O188  1  0.55050000  0.34670000  0.47980000  1.0
  O  O189  1  0.31630000  0.57970000  0.62750000  1.0
  O  O190  1  0.49610000  0.35470000  0.72690000  1.0
  O  O191  1  0.70880000  0.31330000  0.57210000  1.0
  O  O192  1  0.52520000  0.15430000  0.51830000  1.0
  O  O193  1  0.34510000  0.38370000  0.42170000  1.0
  O  O194  1  0.12470000  0.42220000  0.57260000  1.0
  O  O195  1  0.31120000  0.50620000  0.51380000  1.0
