# generated using pymatgen
data_AgH12(C3N)6
_symmetry_space_group_name_H-M   'P 1'
_cell_length_a   22.08700000
_cell_length_b   16.31720000
_cell_length_c   25.62790000
_cell_angle_alpha   90.00000000
_cell_angle_beta   115.26500000
_cell_angle_gamma   90.00000000
_symmetry_Int_Tables_number   1
_chemical_formula_structural   AgH12(C3N)6
_chemical_formula_sum   'Ag16 H192 C288 N96'
_cell_volume   8352.73649257
_cell_formula_units_Z   16
loop_
 _symmetry_equiv_pos_site_id
 _symmetry_equiv_pos_as_xyz
  1  'x, y, z'
loop_
 _atom_site_type_symbol
 _atom_site_label
 _atom_site_symmetry_multiplicity
 _atom_site_fract_x
 _atom_site_fract_y
 _atom_site_fract_z
 _atom_site_occupancy
  Ag  Ag0  1  0.82296000  0.25212000  0.86723000  1.0
  Ag  Ag1  1  0.34397000  0.45717000  0.36776000  1.0
  Ag  Ag2  1  0.32296000  0.75212000  0.86723000  1.0
  Ag  Ag3  1  0.84397000  0.95717000  0.36776000  1.0
  Ag  Ag4  1  0.17704000  0.25212000  0.63277000  1.0
  Ag  Ag5  1  0.65603000  0.45717000  0.13224000  1.0
  Ag  Ag6  1  0.67704000  0.75212000  0.63277000  1.0
  Ag  Ag7  1  0.15603000  0.95717000  0.13224000  1.0
  Ag  Ag8  1  0.17704000  0.74788000  0.13277000  1.0
  Ag  Ag9  1  0.65603000  0.54283000  0.63224000  1.0
  Ag  Ag10  1  0.67704000  0.24788000  0.13277000  1.0
  Ag  Ag11  1  0.15603000  0.04283000  0.63224000  1.0
  Ag  Ag12  1  0.82296000  0.74788000  0.36723000  1.0
  Ag  Ag13  1  0.34397000  0.54283000  0.86776000  1.0
  Ag  Ag14  1  0.32296000  0.24788000  0.36723000  1.0
  Ag  Ag15  1  0.84397000  0.04283000  0.86776000  1.0
  H  H16  1  0.71340000  0.05860000  0.34840000  1.0
  H  H17  1  0.29850000  0.63400000  0.04890000  1.0
  H  H18  1  0.02280000  0.38220000  0.03660000  1.0
  H  H19  1  0.92330000  0.31520000  0.98480000  1.0
  H  H20  1  0.19960000  0.65650000  0.85190000  1.0
  H  H21  1  0.55500000  0.29120000  0.39000000  1.0
  H  H22  1  0.82040000  0.08830000  0.54490000  1.0
  H  H23  1  0.13520000  0.43880000  0.16160000  1.0
  H  H24  1  0.54300000  0.33050000  0.54000000  1.0
  H  H25  1  0.86800000  0.01760000  0.49440000  1.0
  H  H26  1  0.14350000  0.58750000  0.89630000  1.0
  H  H27  1  0.35210000  0.52120000  0.26340000  1.0
  H  H28  1  0.44430000  0.39760000  0.48960000  1.0
  H  H29  1  0.34970000  0.70360000  0.99990000  1.0
  H  H30  1  0.45530000  0.36210000  0.34430000  1.0
  H  H31  1  0.92390000  0.38240000  0.83940000  1.0
  H  H32  1  0.02050000  0.45650000  0.88610000  1.0
  H  H33  1  0.66210000  0.13340000  0.39390000  1.0
  H  H34  1  0.30220000  0.54020000  0.16480000  1.0
  H  H35  1  0.86770000  0.17950000  0.76720000  1.0
  H  H36  1  0.67730000  0.31980000  0.65630000  1.0
  H  H37  1  0.82400000  0.16510000  0.66850000  1.0
  H  H38  1  0.18900000  0.42210000  0.25950000  1.0
  H  H39  1  0.72570000  0.33000000  0.75470000  1.0
  H  H40  1  0.21340000  0.55860000  0.34840000  1.0
  H  H41  1  0.79850000  0.13400000  0.04890000  1.0
  H  H42  1  0.52280000  0.88220000  0.03660000  1.0
  H  H43  1  0.42330000  0.81520000  0.98480000  1.0
  H  H44  1  0.69960000  0.15650000  0.85190000  1.0
  H  H45  1  0.05500000  0.79120000  0.39000000  1.0
  H  H46  1  0.32040000  0.58830000  0.54490000  1.0
  H  H47  1  0.63520000  0.93880000  0.16160000  1.0
  H  H48  1  0.04300000  0.83050000  0.54000000  1.0
  H  H49  1  0.36800000  0.51760000  0.49440000  1.0
  H  H50  1  0.64350000  0.08750000  0.89630000  1.0
  H  H51  1  0.85210000  0.02120000  0.26340000  1.0
  H  H52  1  0.94430000  0.89760000  0.48960000  1.0
  H  H53  1  0.84970000  0.20360000  0.99990000  1.0
  H  H54  1  0.95530000  0.86210000  0.34430000  1.0
  H  H55  1  0.42390000  0.88240000  0.83940000  1.0
  H  H56  1  0.52050000  0.95650000  0.88610000  1.0
  H  H57  1  0.16210000  0.63340000  0.39390000  1.0
  H  H58  1  0.80220000  0.04020000  0.16480000  1.0
  H  H59  1  0.36770000  0.67950000  0.76720000  1.0
  H  H60  1  0.17730000  0.81980000  0.65630000  1.0
  H  H61  1  0.32400000  0.66510000  0.66850000  1.0
  H  H62  1  0.68900000  0.92210000  0.25950000  1.0
  H  H63  1  0.22570000  0.83000000  0.75470000  1.0
  H  H64  1  0.28660000  0.05860000  0.15160000  1.0
  H  H65  1  0.70150000  0.63400000  0.45110000  1.0
  H  H66  1  0.97720000  0.38220000  0.46340000  1.0
  H  H67  1  0.07670000  0.31520000  0.51520000  1.0
  H  H68  1  0.80040000  0.65650000  0.64810000  1.0
  H  H69  1  0.44500000  0.29120000  0.11000000  1.0
  H  H70  1  0.17960000  0.08830000  0.95510000  1.0
  H  H71  1  0.86480000  0.43880000  0.33840000  1.0
  H  H72  1  0.45700000  0.33050000  0.96000000  1.0
  H  H73  1  0.13200000  0.01760000  0.00560000  1.0
  H  H74  1  0.85650000  0.58750000  0.60370000  1.0
  H  H75  1  0.64790000  0.52120000  0.23660000  1.0
  H  H76  1  0.55570000  0.39760000  0.01040000  1.0
  H  H77  1  0.65030000  0.70360000  0.50010000  1.0
  H  H78  1  0.54470000  0.36210000  0.15570000  1.0
  H  H79  1  0.07610000  0.38240000  0.66060000  1.0
  H  H80  1  0.97950000  0.45650000  0.61390000  1.0
  H  H81  1  0.33790000  0.13340000  0.10610000  1.0
  H  H82  1  0.69780000  0.54020000  0.33520000  1.0
  H  H83  1  0.13230000  0.17950000  0.73280000  1.0
  H  H84  1  0.32270000  0.31980000  0.84370000  1.0
  H  H85  1  0.17600000  0.16510000  0.83150000  1.0
  H  H86  1  0.81100000  0.42210000  0.24050000  1.0
  H  H87  1  0.27430000  0.33000000  0.74530000  1.0
  H  H88  1  0.78660000  0.55860000  0.15160000  1.0
  H  H89  1  0.20150000  0.13400000  0.45110000  1.0
  H  H90  1  0.47720000  0.88220000  0.46340000  1.0
  H  H91  1  0.57670000  0.81520000  0.51520000  1.0
  H  H92  1  0.30040000  0.15650000  0.64810000  1.0
  H  H93  1  0.94500000  0.79120000  0.11000000  1.0
  H  H94  1  0.67960000  0.58830000  0.95510000  1.0
  H  H95  1  0.36480000  0.93880000  0.33840000  1.0
  H  H96  1  0.95700000  0.83050000  0.96000000  1.0
  H  H97  1  0.63200000  0.51760000  0.00560000  1.0
  H  H98  1  0.35650000  0.08750000  0.60370000  1.0
  H  H99  1  0.14790000  0.02120000  0.23660000  1.0
  H  H100  1  0.05570000  0.89760000  0.01040000  1.0
  H  H101  1  0.15030000  0.20360000  0.50010000  1.0
  H  H102  1  0.04470000  0.86210000  0.15570000  1.0
  H  H103  1  0.57610000  0.88240000  0.66060000  1.0
  H  H104  1  0.47950000  0.95650000  0.61390000  1.0
  H  H105  1  0.83790000  0.63340000  0.10610000  1.0
  H  H106  1  0.19780000  0.04020000  0.33520000  1.0
  H  H107  1  0.63230000  0.67950000  0.73280000  1.0
  H  H108  1  0.82270000  0.81980000  0.84370000  1.0
  H  H109  1  0.67600000  0.66510000  0.83150000  1.0
  H  H110  1  0.31100000  0.92210000  0.24050000  1.0
  H  H111  1  0.77430000  0.83000000  0.74530000  1.0
  H  H112  1  0.28660000  0.94140000  0.65160000  1.0
  H  H113  1  0.70150000  0.36600000  0.95110000  1.0
  H  H114  1  0.97720000  0.61780000  0.96340000  1.0
  H  H115  1  0.07670000  0.68480000  0.01520000  1.0
  H  H116  1  0.80040000  0.34350000  0.14810000  1.0
  H  H117  1  0.44500000  0.70880000  0.61000000  1.0
  H  H118  1  0.17960000  0.91170000  0.45510000  1.0
  H  H119  1  0.86480000  0.56120000  0.83840000  1.0
  H  H120  1  0.45700000  0.66950000  0.46000000  1.0
  H  H121  1  0.13200000  0.98240000  0.50560000  1.0
  H  H122  1  0.85650000  0.41250000  0.10370000  1.0
  H  H123  1  0.64790000  0.47880000  0.73660000  1.0
  H  H124  1  0.55570000  0.60240000  0.51040000  1.0
  H  H125  1  0.65030000  0.29640000  0.00010000  1.0
  H  H126  1  0.54470000  0.63790000  0.65570000  1.0
  H  H127  1  0.07610000  0.61760000  0.16060000  1.0
  H  H128  1  0.97950000  0.54350000  0.11390000  1.0
  H  H129  1  0.33790000  0.86660000  0.60610000  1.0
  H  H130  1  0.69780000  0.45980000  0.83520000  1.0
  H  H131  1  0.13230000  0.82050000  0.23280000  1.0
  H  H132  1  0.32270000  0.68020000  0.34370000  1.0
  H  H133  1  0.17600000  0.83490000  0.33150000  1.0
  H  H134  1  0.81100000  0.57790000  0.74050000  1.0
  H  H135  1  0.27430000  0.67000000  0.24530000  1.0
  H  H136  1  0.78660000  0.44140000  0.65160000  1.0
  H  H137  1  0.20150000  0.86600000  0.95110000  1.0
  H  H138  1  0.47720000  0.11780000  0.96340000  1.0
  H  H139  1  0.57670000  0.18480000  0.01520000  1.0
  H  H140  1  0.30040000  0.84350000  0.14810000  1.0
  H  H141  1  0.94500000  0.20880000  0.61000000  1.0
  H  H142  1  0.67960000  0.41170000  0.45510000  1.0
  H  H143  1  0.36480000  0.06120000  0.83840000  1.0
  H  H144  1  0.95700000  0.16950000  0.46000000  1.0
  H  H145  1  0.63200000  0.48240000  0.50560000  1.0
  H  H146  1  0.35650000  0.91250000  0.10370000  1.0
  H  H147  1  0.14790000  0.97880000  0.73660000  1.0
  H  H148  1  0.05570000  0.10240000  0.51040000  1.0
  H  H149  1  0.15030000  0.79640000  0.00010000  1.0
  H  H150  1  0.04470000  0.13790000  0.65570000  1.0
  H  H151  1  0.57610000  0.11760000  0.16060000  1.0
  H  H152  1  0.47950000  0.04350000  0.11390000  1.0
  H  H153  1  0.83790000  0.36660000  0.60610000  1.0
  H  H154  1  0.19780000  0.95980000  0.83520000  1.0
  H  H155  1  0.63230000  0.32050000  0.23280000  1.0
  H  H156  1  0.82270000  0.18020000  0.34370000  1.0
  H  H157  1  0.67600000  0.33490000  0.33150000  1.0
  H  H158  1  0.31100000  0.07790000  0.74050000  1.0
  H  H159  1  0.77430000  0.17000000  0.24530000  1.0
  H  H160  1  0.71340000  0.94140000  0.84840000  1.0
  H  H161  1  0.29850000  0.36600000  0.54890000  1.0
  H  H162  1  0.02280000  0.61780000  0.53660000  1.0
  H  H163  1  0.92330000  0.68480000  0.48480000  1.0
  H  H164  1  0.19960000  0.34350000  0.35190000  1.0
  H  H165  1  0.55500000  0.70880000  0.89000000  1.0
  H  H166  1  0.82040000  0.91170000  0.04490000  1.0
  H  H167  1  0.13520000  0.56120000  0.66160000  1.0
  H  H168  1  0.54300000  0.66950000  0.04000000  1.0
  H  H169  1  0.86800000  0.98240000  0.99440000  1.0
  H  H170  1  0.14350000  0.41250000  0.39630000  1.0
  H  H171  1  0.35210000  0.47880000  0.76340000  1.0
  H  H172  1  0.44430000  0.60240000  0.98960000  1.0
  H  H173  1  0.34970000  0.29640000  0.49990000  1.0
  H  H174  1  0.45530000  0.63790000  0.84430000  1.0
  H  H175  1  0.92390000  0.61760000  0.33940000  1.0
  H  H176  1  0.02050000  0.54350000  0.38610000  1.0
  H  H177  1  0.66210000  0.86660000  0.89390000  1.0
  H  H178  1  0.30220000  0.45980000  0.66480000  1.0
  H  H179  1  0.86770000  0.82050000  0.26720000  1.0
  H  H180  1  0.67730000  0.68020000  0.15630000  1.0
  H  H181  1  0.82400000  0.83490000  0.16850000  1.0
  H  H182  1  0.18900000  0.57790000  0.75950000  1.0
  H  H183  1  0.72570000  0.67000000  0.25470000  1.0
  H  H184  1  0.21340000  0.44140000  0.84840000  1.0
  H  H185  1  0.79850000  0.86600000  0.54890000  1.0
  H  H186  1  0.52280000  0.11780000  0.53660000  1.0
  H  H187  1  0.42330000  0.18480000  0.48480000  1.0
  H  H188  1  0.69960000  0.84350000  0.35190000  1.0
  H  H189  1  0.05500000  0.20880000  0.89000000  1.0
  H  H190  1  0.32040000  0.41170000  0.04490000  1.0
  H  H191  1  0.63520000  0.06120000  0.66160000  1.0
  H  H192  1  0.04300000  0.16950000  0.04000000  1.0
  H  H193  1  0.36800000  0.48240000  0.99440000  1.0
  H  H194  1  0.64350000  0.91250000  0.39630000  1.0
  H  H195  1  0.85210000  0.97880000  0.76340000  1.0
  H  H196  1  0.94430000  0.10240000  0.98960000  1.0
  H  H197  1  0.84970000  0.79640000  0.49990000  1.0
  H  H198  1  0.95530000  0.13790000  0.84430000  1.0
  H  H199  1  0.42390000  0.11760000  0.33940000  1.0
  H  H200  1  0.52050000  0.04350000  0.38610000  1.0
  H  H201  1  0.16210000  0.36660000  0.89390000  1.0
  H  H202  1  0.80220000  0.95980000  0.66480000  1.0
  H  H203  1  0.36770000  0.32050000  0.26720000  1.0
  H  H204  1  0.17730000  0.18020000  0.15630000  1.0
  H  H205  1  0.32400000  0.33490000  0.16850000  1.0
  H  H206  1  0.68900000  0.07790000  0.75950000  1.0
  H  H207  1  0.22570000  0.17000000  0.25470000  1.0
  C  C208  1  0.62370000  0.25680000  0.50240000  1.0
  C  C209  1  0.73530000  0.06520000  0.38820000  1.0
  C  C210  1  0.27760000  0.63770000  0.00890000  1.0
  C  C211  1  0.00330000  0.38370000  0.99650000  1.0
  C  C212  1  0.94350000  0.34330000  0.96480000  1.0
  C  C213  1  0.21960000  0.65210000  0.89190000  1.0
  C  C214  1  0.53320000  0.31210000  0.41120000  1.0
  C  C215  1  0.09770000  0.46990000  0.00100000  1.0
  C  C216  1  0.79810000  0.08400000  0.50490000  1.0
  C  C217  1  0.55980000  0.30190000  0.47010000  1.0
  C  C218  1  0.17920000  0.45630000  0.18150000  1.0
  C  C219  1  0.03340000  0.42620000  0.96710000  1.0
  C  C220  1  0.70980000  0.22690000  0.58760000  1.0
  C  C221  1  0.74330000  0.23730000  0.65140000  1.0
  C  C222  1  0.52590000  0.33520000  0.50010000  1.0
  C  C223  1  0.18040000  0.50230000  0.08840000  1.0
  C  C224  1  0.18250000  0.55170000  0.00670000  1.0
  C  C225  1  0.82600000  0.04080000  0.47410000  1.0
  C  C226  1  0.21510000  0.60130000  0.97740000  1.0
  C  C227  1  0.18550000  0.60980000  0.91820000  1.0
  C  C228  1  0.73620000  0.12090000  0.47490000  1.0
  C  C229  1  0.30790000  0.50480000  0.24270000  1.0
  C  C230  1  0.46660000  0.37530000  0.46930000  1.0
  C  C231  1  0.70560000  0.17210000  0.50520000  1.0
  C  C232  1  0.30810000  0.67970000  0.97890000  1.0
  C  C233  1  0.47280000  0.35440000  0.38400000  1.0
  C  C234  1  0.94360000  0.38350000  0.87960000  1.0
  C  C235  1  0.00230000  0.42720000  0.90710000  1.0
  C  C236  1  0.70400000  0.11030000  0.41520000  1.0
  C  C237  1  0.27820000  0.51660000  0.18330000  1.0
  C  C238  1  0.21230000  0.49240000  0.15200000  1.0
  C  C239  1  0.82830000  0.20710000  0.74460000  1.0
  C  C240  1  0.71540000  0.28940000  0.67810000  1.0
  C  C241  1  0.80230000  0.19750000  0.68510000  1.0
  C  C242  1  0.21190000  0.44650000  0.24040000  1.0
  C  C243  1  0.74500000  0.29530000  0.73720000  1.0
  C  C244  1  0.12370000  0.75680000  0.50240000  1.0
  C  C245  1  0.23530000  0.56520000  0.38820000  1.0
  C  C246  1  0.77760000  0.13770000  0.00890000  1.0
  C  C247  1  0.50330000  0.88370000  0.99650000  1.0
  C  C248  1  0.44350000  0.84330000  0.96480000  1.0
  C  C249  1  0.71960000  0.15210000  0.89190000  1.0
  C  C250  1  0.03320000  0.81210000  0.41120000  1.0
  C  C251  1  0.59770000  0.96990000  0.00100000  1.0
  C  C252  1  0.29810000  0.58400000  0.50490000  1.0
  C  C253  1  0.05980000  0.80190000  0.47010000  1.0
  C  C254  1  0.67920000  0.95630000  0.18150000  1.0
  C  C255  1  0.53340000  0.92620000  0.96710000  1.0
  C  C256  1  0.20980000  0.72690000  0.58760000  1.0
  C  C257  1  0.24330000  0.73730000  0.65140000  1.0
  C  C258  1  0.02590000  0.83520000  0.50010000  1.0
  C  C259  1  0.68040000  0.00230000  0.08840000  1.0
  C  C260  1  0.68250000  0.05170000  0.00670000  1.0
  C  C261  1  0.32600000  0.54080000  0.47410000  1.0
  C  C262  1  0.71510000  0.10130000  0.97740000  1.0
  C  C263  1  0.68550000  0.10980000  0.91820000  1.0
  C  C264  1  0.23620000  0.62090000  0.47490000  1.0
  C  C265  1  0.80790000  0.00480000  0.24270000  1.0
  C  C266  1  0.96660000  0.87530000  0.46930000  1.0
  C  C267  1  0.20560000  0.67210000  0.50520000  1.0
  C  C268  1  0.80810000  0.17970000  0.97890000  1.0
  C  C269  1  0.97280000  0.85440000  0.38400000  1.0
  C  C270  1  0.44360000  0.88350000  0.87960000  1.0
  C  C271  1  0.50230000  0.92720000  0.90710000  1.0
  C  C272  1  0.20400000  0.61030000  0.41520000  1.0
  C  C273  1  0.77820000  0.01660000  0.18330000  1.0
  C  C274  1  0.71230000  0.99240000  0.15200000  1.0
  C  C275  1  0.32830000  0.70710000  0.74460000  1.0
  C  C276  1  0.21540000  0.78940000  0.67810000  1.0
  C  C277  1  0.30230000  0.69750000  0.68510000  1.0
  C  C278  1  0.71190000  0.94650000  0.24040000  1.0
  C  C279  1  0.24500000  0.79530000  0.73720000  1.0
  C  C280  1  0.37630000  0.25680000  0.99760000  1.0
  C  C281  1  0.26470000  0.06520000  0.11180000  1.0
  C  C282  1  0.72240000  0.63770000  0.49110000  1.0
  C  C283  1  0.99670000  0.38370000  0.50350000  1.0
  C  C284  1  0.05650000  0.34330000  0.53520000  1.0
  C  C285  1  0.78040000  0.65210000  0.60810000  1.0
  C  C286  1  0.46680000  0.31210000  0.08880000  1.0
  C  C287  1  0.90230000  0.46990000  0.49900000  1.0
  C  C288  1  0.20190000  0.08400000  0.99510000  1.0
  C  C289  1  0.44020000  0.30190000  0.02990000  1.0
  C  C290  1  0.82080000  0.45630000  0.31850000  1.0
  C  C291  1  0.96660000  0.42620000  0.53290000  1.0
  C  C292  1  0.29020000  0.22690000  0.91240000  1.0
  C  C293  1  0.25670000  0.23730000  0.84860000  1.0
  C  C294  1  0.47410000  0.33520000  0.99990000  1.0
  C  C295  1  0.81960000  0.50230000  0.41160000  1.0
  C  C296  1  0.81750000  0.55170000  0.49330000  1.0
  C  C297  1  0.17400000  0.04080000  0.02590000  1.0
  C  C298  1  0.78490000  0.60130000  0.52260000  1.0
  C  C299  1  0.81450000  0.60980000  0.58180000  1.0
  C  C300  1  0.26380000  0.12090000  0.02510000  1.0
  C  C301  1  0.69210000  0.50480000  0.25730000  1.0
  C  C302  1  0.53340000  0.37530000  0.03070000  1.0
  C  C303  1  0.29440000  0.17210000  0.99480000  1.0
  C  C304  1  0.69190000  0.67970000  0.52110000  1.0
  C  C305  1  0.52720000  0.35440000  0.11600000  1.0
  C  C306  1  0.05640000  0.38350000  0.62040000  1.0
  C  C307  1  0.99770000  0.42720000  0.59290000  1.0
  C  C308  1  0.29600000  0.11030000  0.08480000  1.0
  C  C309  1  0.72180000  0.51660000  0.31670000  1.0
  C  C310  1  0.78770000  0.49240000  0.34800000  1.0
  C  C311  1  0.17170000  0.20710000  0.75540000  1.0
  C  C312  1  0.28460000  0.28940000  0.82190000  1.0
  C  C313  1  0.19770000  0.19750000  0.81490000  1.0
  C  C314  1  0.78810000  0.44650000  0.25960000  1.0
  C  C315  1  0.25500000  0.29530000  0.76280000  1.0
  C  C316  1  0.87630000  0.75680000  0.99760000  1.0
  C  C317  1  0.76470000  0.56520000  0.11180000  1.0
  C  C318  1  0.22240000  0.13770000  0.49110000  1.0
  C  C319  1  0.49670000  0.88370000  0.50350000  1.0
  C  C320  1  0.55650000  0.84330000  0.53520000  1.0
  C  C321  1  0.28040000  0.15210000  0.60810000  1.0
  C  C322  1  0.96680000  0.81210000  0.08880000  1.0
  C  C323  1  0.40230000  0.96990000  0.49900000  1.0
  C  C324  1  0.70190000  0.58400000  0.99510000  1.0
  C  C325  1  0.94020000  0.80190000  0.02990000  1.0
  C  C326  1  0.32080000  0.95630000  0.31850000  1.0
  C  C327  1  0.46660000  0.92620000  0.53290000  1.0
  C  C328  1  0.79020000  0.72690000  0.91240000  1.0
  C  C329  1  0.75670000  0.73730000  0.84860000  1.0
  C  C330  1  0.97410000  0.83520000  0.99990000  1.0
  C  C331  1  0.31960000  0.00230000  0.41160000  1.0
  C  C332  1  0.31750000  0.05170000  0.49330000  1.0
  C  C333  1  0.67400000  0.54080000  0.02590000  1.0
  C  C334  1  0.28490000  0.10130000  0.52260000  1.0
  C  C335  1  0.31450000  0.10980000  0.58180000  1.0
  C  C336  1  0.76380000  0.62090000  0.02510000  1.0
  C  C337  1  0.19210000  0.00480000  0.25730000  1.0
  C  C338  1  0.03340000  0.87530000  0.03070000  1.0
  C  C339  1  0.79440000  0.67210000  0.99480000  1.0
  C  C340  1  0.19190000  0.17970000  0.52110000  1.0
  C  C341  1  0.02720000  0.85440000  0.11600000  1.0
  C  C342  1  0.55640000  0.88350000  0.62040000  1.0
  C  C343  1  0.49770000  0.92720000  0.59290000  1.0
  C  C344  1  0.79600000  0.61030000  0.08480000  1.0
  C  C345  1  0.22180000  0.01660000  0.31670000  1.0
  C  C346  1  0.28770000  0.99240000  0.34800000  1.0
  C  C347  1  0.67170000  0.70710000  0.75540000  1.0
  C  C348  1  0.78460000  0.78940000  0.82190000  1.0
  C  C349  1  0.69770000  0.69750000  0.81490000  1.0
  C  C350  1  0.28810000  0.94650000  0.25960000  1.0
  C  C351  1  0.75500000  0.79530000  0.76280000  1.0
  C  C352  1  0.37630000  0.74320000  0.49760000  1.0
  C  C353  1  0.26470000  0.93480000  0.61180000  1.0
  C  C354  1  0.72240000  0.36230000  0.99110000  1.0
  C  C355  1  0.99670000  0.61630000  0.00350000  1.0
  C  C356  1  0.05650000  0.65670000  0.03520000  1.0
  C  C357  1  0.78040000  0.34790000  0.10810000  1.0
  C  C358  1  0.46680000  0.68790000  0.58880000  1.0
  C  C359  1  0.90230000  0.53010000  0.99900000  1.0
  C  C360  1  0.20190000  0.91600000  0.49510000  1.0
  C  C361  1  0.44020000  0.69810000  0.52990000  1.0
  C  C362  1  0.82080000  0.54370000  0.81850000  1.0
  C  C363  1  0.96660000  0.57380000  0.03290000  1.0
  C  C364  1  0.29020000  0.77310000  0.41240000  1.0
  C  C365  1  0.25670000  0.76270000  0.34860000  1.0
  C  C366  1  0.47410000  0.66480000  0.49990000  1.0
  C  C367  1  0.81960000  0.49770000  0.91160000  1.0
  C  C368  1  0.81750000  0.44830000  0.99330000  1.0
  C  C369  1  0.17400000  0.95920000  0.52590000  1.0
  C  C370  1  0.78490000  0.39870000  0.02260000  1.0
  C  C371  1  0.81450000  0.39020000  0.08180000  1.0
  C  C372  1  0.26380000  0.87910000  0.52510000  1.0
  C  C373  1  0.69210000  0.49520000  0.75730000  1.0
  C  C374  1  0.53340000  0.62470000  0.53070000  1.0
  C  C375  1  0.29440000  0.82790000  0.49480000  1.0
  C  C376  1  0.69190000  0.32030000  0.02110000  1.0
  C  C377  1  0.52720000  0.64560000  0.61600000  1.0
  C  C378  1  0.05640000  0.61650000  0.12040000  1.0
  C  C379  1  0.99770000  0.57280000  0.09290000  1.0
  C  C380  1  0.29600000  0.88970000  0.58480000  1.0
  C  C381  1  0.72180000  0.48340000  0.81670000  1.0
  C  C382  1  0.78770000  0.50760000  0.84800000  1.0
  C  C383  1  0.17170000  0.79290000  0.25540000  1.0
  C  C384  1  0.28460000  0.71060000  0.32190000  1.0
  C  C385  1  0.19770000  0.80250000  0.31490000  1.0
  C  C386  1  0.78810000  0.55350000  0.75960000  1.0
  C  C387  1  0.25500000  0.70470000  0.26280000  1.0
  C  C388  1  0.87630000  0.24320000  0.49760000  1.0
  C  C389  1  0.76470000  0.43480000  0.61180000  1.0
  C  C390  1  0.22240000  0.86230000  0.99110000  1.0
  C  C391  1  0.49670000  0.11630000  0.00350000  1.0
  C  C392  1  0.55650000  0.15670000  0.03520000  1.0
  C  C393  1  0.28040000  0.84790000  0.10810000  1.0
  C  C394  1  0.96680000  0.18790000  0.58880000  1.0
  C  C395  1  0.40230000  0.03010000  0.99900000  1.0
  C  C396  1  0.70190000  0.41600000  0.49510000  1.0
  C  C397  1  0.94020000  0.19810000  0.52990000  1.0
  C  C398  1  0.32080000  0.04370000  0.81850000  1.0
  C  C399  1  0.46660000  0.07380000  0.03290000  1.0
  C  C400  1  0.79020000  0.27310000  0.41240000  1.0
  C  C401  1  0.75670000  0.26270000  0.34860000  1.0
  C  C402  1  0.97410000  0.16480000  0.49990000  1.0
  C  C403  1  0.31960000  0.99770000  0.91160000  1.0
  C  C404  1  0.31750000  0.94830000  0.99330000  1.0
  C  C405  1  0.67400000  0.45920000  0.52590000  1.0
  C  C406  1  0.28490000  0.89870000  0.02260000  1.0
  C  C407  1  0.31450000  0.89020000  0.08180000  1.0
  C  C408  1  0.76380000  0.37910000  0.52510000  1.0
  C  C409  1  0.19210000  0.99520000  0.75730000  1.0
  C  C410  1  0.03340000  0.12470000  0.53070000  1.0
  C  C411  1  0.79440000  0.32790000  0.49480000  1.0
  C  C412  1  0.19190000  0.82030000  0.02110000  1.0
  C  C413  1  0.02720000  0.14560000  0.61600000  1.0
  C  C414  1  0.55640000  0.11650000  0.12040000  1.0
  C  C415  1  0.49770000  0.07280000  0.09290000  1.0
  C  C416  1  0.79600000  0.38970000  0.58480000  1.0
  C  C417  1  0.22180000  0.98340000  0.81670000  1.0
  C  C418  1  0.28770000  0.00760000  0.84800000  1.0
  C  C419  1  0.67170000  0.29290000  0.25540000  1.0
  C  C420  1  0.78460000  0.21060000  0.32190000  1.0
  C  C421  1  0.69770000  0.30250000  0.31490000  1.0
  C  C422  1  0.28810000  0.05350000  0.75960000  1.0
  C  C423  1  0.75500000  0.20470000  0.26280000  1.0
  C  C424  1  0.62370000  0.74320000  0.00240000  1.0
  C  C425  1  0.73530000  0.93480000  0.88820000  1.0
  C  C426  1  0.27760000  0.36230000  0.50890000  1.0
  C  C427  1  0.00330000  0.61630000  0.49650000  1.0
  C  C428  1  0.94350000  0.65670000  0.46480000  1.0
  C  C429  1  0.21960000  0.34790000  0.39190000  1.0
  C  C430  1  0.53320000  0.68790000  0.91120000  1.0
  C  C431  1  0.09770000  0.53010000  0.50100000  1.0
  C  C432  1  0.79810000  0.91600000  0.00490000  1.0
  C  C433  1  0.55980000  0.69810000  0.97010000  1.0
  C  C434  1  0.17920000  0.54370000  0.68150000  1.0
  C  C435  1  0.03340000  0.57380000  0.46710000  1.0
  C  C436  1  0.70980000  0.77310000  0.08760000  1.0
  C  C437  1  0.74330000  0.76270000  0.15140000  1.0
  C  C438  1  0.52590000  0.66480000  0.00010000  1.0
  C  C439  1  0.18040000  0.49770000  0.58840000  1.0
  C  C440  1  0.18250000  0.44830000  0.50670000  1.0
  C  C441  1  0.82600000  0.95920000  0.97410000  1.0
  C  C442  1  0.21510000  0.39870000  0.47740000  1.0
  C  C443  1  0.18550000  0.39020000  0.41820000  1.0
  C  C444  1  0.73620000  0.87910000  0.97490000  1.0
  C  C445  1  0.30790000  0.49520000  0.74270000  1.0
  C  C446  1  0.46660000  0.62470000  0.96930000  1.0
  C  C447  1  0.70560000  0.82790000  0.00520000  1.0
  C  C448  1  0.30810000  0.32030000  0.47890000  1.0
  C  C449  1  0.47280000  0.64560000  0.88400000  1.0
  C  C450  1  0.94360000  0.61650000  0.37960000  1.0
  C  C451  1  0.00230000  0.57280000  0.40710000  1.0
  C  C452  1  0.70400000  0.88970000  0.91520000  1.0
  C  C453  1  0.27820000  0.48340000  0.68330000  1.0
  C  C454  1  0.21230000  0.50760000  0.65200000  1.0
  C  C455  1  0.82830000  0.79290000  0.24460000  1.0
  C  C456  1  0.71540000  0.71060000  0.17810000  1.0
  C  C457  1  0.80230000  0.80250000  0.18510000  1.0
  C  C458  1  0.21190000  0.55350000  0.74040000  1.0
  C  C459  1  0.74500000  0.70470000  0.23720000  1.0
  C  C460  1  0.12370000  0.24320000  0.00240000  1.0
  C  C461  1  0.23530000  0.43480000  0.88820000  1.0
  C  C462  1  0.77760000  0.86230000  0.50890000  1.0
  C  C463  1  0.50330000  0.11630000  0.49650000  1.0
  C  C464  1  0.44350000  0.15670000  0.46480000  1.0
  C  C465  1  0.71960000  0.84790000  0.39190000  1.0
  C  C466  1  0.03320000  0.18790000  0.91120000  1.0
  C  C467  1  0.59770000  0.03010000  0.50100000  1.0
  C  C468  1  0.29810000  0.41600000  0.00490000  1.0
  C  C469  1  0.05980000  0.19810000  0.97010000  1.0
  C  C470  1  0.67920000  0.04370000  0.68150000  1.0
  C  C471  1  0.53340000  0.07380000  0.46710000  1.0
  C  C472  1  0.20980000  0.27310000  0.08760000  1.0
  C  C473  1  0.24330000  0.26270000  0.15140000  1.0
  C  C474  1  0.02590000  0.16480000  0.00010000  1.0
  C  C475  1  0.68040000  0.99770000  0.58840000  1.0
  C  C476  1  0.68250000  0.94830000  0.50670000  1.0
  C  C477  1  0.32600000  0.45920000  0.97410000  1.0
  C  C478  1  0.71510000  0.89870000  0.47740000  1.0
  C  C479  1  0.68550000  0.89020000  0.41820000  1.0
  C  C480  1  0.23620000  0.37910000  0.97490000  1.0
  C  C481  1  0.80790000  0.99520000  0.74270000  1.0
  C  C482  1  0.96660000  0.12470000  0.96930000  1.0
  C  C483  1  0.20560000  0.32790000  0.00520000  1.0
  C  C484  1  0.80810000  0.82030000  0.47890000  1.0
  C  C485  1  0.97280000  0.14560000  0.88400000  1.0
  C  C486  1  0.44360000  0.11650000  0.37960000  1.0
  C  C487  1  0.50230000  0.07280000  0.40710000  1.0
  C  C488  1  0.20400000  0.38970000  0.91520000  1.0
  C  C489  1  0.77820000  0.98340000  0.68330000  1.0
  C  C490  1  0.71230000  0.00760000  0.65200000  1.0
  C  C491  1  0.32830000  0.29290000  0.24460000  1.0
  C  C492  1  0.21540000  0.21060000  0.17810000  1.0
  C  C493  1  0.30230000  0.30250000  0.18510000  1.0
  C  C494  1  0.71190000  0.05350000  0.74040000  1.0
  C  C495  1  0.24500000  0.20470000  0.23720000  1.0
  N  N496  1  0.91330000  0.34260000  0.90722000  1.0
  N  N497  1  0.28000000  0.68720000  0.92140000  1.0
  N  N498  1  0.27590000  0.47090000  0.27170000  1.0
  N  N499  1  0.12280000  0.46270000  0.05890000  1.0
  N  N500  1  0.12630000  0.51120000  0.97315000  1.0
  N  N501  1  0.21150000  0.54990000  0.06485000  1.0
  N  N502  1  0.43900000  0.38430000  0.41210000  1.0
  N  N503  1  0.79570000  0.03030000  0.41656000  1.0
  N  N504  1  0.80040000  0.25360000  0.77130000  1.0
  N  N505  1  0.64800000  0.21050000  0.47260000  1.0
  N  N506  1  0.73820000  0.17750000  0.56314000  1.0
  N  N507  1  0.65290000  0.26810000  0.55923000  1.0
  N  N508  1  0.41330000  0.84260000  0.90722000  1.0
  N  N509  1  0.78000000  0.18720000  0.92140000  1.0
  N  N510  1  0.77590000  0.97090000  0.27170000  1.0
  N  N511  1  0.62280000  0.96270000  0.05890000  1.0
  N  N512  1  0.62630000  0.01120000  0.97315000  1.0
  N  N513  1  0.71150000  0.04990000  0.06485000  1.0
  N  N514  1  0.93900000  0.88430000  0.41210000  1.0
  N  N515  1  0.29570000  0.53030000  0.41656000  1.0
  N  N516  1  0.30040000  0.75360000  0.77130000  1.0
  N  N517  1  0.14800000  0.71050000  0.47260000  1.0
  N  N518  1  0.23820000  0.67750000  0.56314000  1.0
  N  N519  1  0.15290000  0.76810000  0.55923000  1.0
  N  N520  1  0.08670000  0.34260000  0.59278000  1.0
  N  N521  1  0.72000000  0.68720000  0.57860000  1.0
  N  N522  1  0.72410000  0.47090000  0.22830000  1.0
  N  N523  1  0.87720000  0.46270000  0.44110000  1.0
  N  N524  1  0.87370000  0.51120000  0.52685000  1.0
  N  N525  1  0.78850000  0.54990000  0.43515000  1.0
  N  N526  1  0.56100000  0.38430000  0.08790000  1.0
  N  N527  1  0.20430000  0.03030000  0.08344000  1.0
  N  N528  1  0.19960000  0.25360000  0.72870000  1.0
  N  N529  1  0.35200000  0.21050000  0.02740000  1.0
  N  N530  1  0.26180000  0.17750000  0.93686000  1.0
  N  N531  1  0.34710000  0.26810000  0.94077000  1.0
  N  N532  1  0.58670000  0.84260000  0.59278000  1.0
  N  N533  1  0.22000000  0.18720000  0.57860000  1.0
  N  N534  1  0.22410000  0.97090000  0.22830000  1.0
  N  N535  1  0.37720000  0.96270000  0.44110000  1.0
  N  N536  1  0.37370000  0.01120000  0.52685000  1.0
  N  N537  1  0.28850000  0.04990000  0.43515000  1.0
  N  N538  1  0.06100000  0.88430000  0.08790000  1.0
  N  N539  1  0.70430000  0.53030000  0.08344000  1.0
  N  N540  1  0.69960000  0.75360000  0.72870000  1.0
  N  N541  1  0.85200000  0.71050000  0.02740000  1.0
  N  N542  1  0.76180000  0.67750000  0.93686000  1.0
  N  N543  1  0.84710000  0.76810000  0.94077000  1.0
  N  N544  1  0.08670000  0.65740000  0.09278000  1.0
  N  N545  1  0.72000000  0.31280000  0.07860000  1.0
  N  N546  1  0.72410000  0.52910000  0.72830000  1.0
  N  N547  1  0.87720000  0.53730000  0.94110000  1.0
  N  N548  1  0.87370000  0.48880000  0.02685000  1.0
  N  N549  1  0.78850000  0.45010000  0.93515000  1.0
  N  N550  1  0.56100000  0.61570000  0.58790000  1.0
  N  N551  1  0.20430000  0.96970000  0.58344000  1.0
  N  N552  1  0.19960000  0.74640000  0.22870000  1.0
  N  N553  1  0.35200000  0.78950000  0.52740000  1.0
  N  N554  1  0.26180000  0.82250000  0.43686000  1.0
  N  N555  1  0.34710000  0.73190000  0.44077000  1.0
  N  N556  1  0.58670000  0.15740000  0.09278000  1.0
  N  N557  1  0.22000000  0.81280000  0.07860000  1.0
  N  N558  1  0.22410000  0.02910000  0.72830000  1.0
  N  N559  1  0.37720000  0.03730000  0.94110000  1.0
  N  N560  1  0.37370000  0.98880000  0.02685000  1.0
  N  N561  1  0.28850000  0.95010000  0.93515000  1.0
  N  N562  1  0.06100000  0.11570000  0.58790000  1.0
  N  N563  1  0.70430000  0.46970000  0.58344000  1.0
  N  N564  1  0.69960000  0.24640000  0.22870000  1.0
  N  N565  1  0.85200000  0.28950000  0.52740000  1.0
  N  N566  1  0.76180000  0.32250000  0.43686000  1.0
  N  N567  1  0.84710000  0.23190000  0.44077000  1.0
  N  N568  1  0.91330000  0.65740000  0.40722000  1.0
  N  N569  1  0.28000000  0.31280000  0.42140000  1.0
  N  N570  1  0.27590000  0.52910000  0.77170000  1.0
  N  N571  1  0.12280000  0.53730000  0.55890000  1.0
  N  N572  1  0.12630000  0.48880000  0.47315000  1.0
  N  N573  1  0.21150000  0.45010000  0.56485000  1.0
  N  N574  1  0.43900000  0.61570000  0.91210000  1.0
  N  N575  1  0.79570000  0.96970000  0.91656000  1.0
  N  N576  1  0.80040000  0.74640000  0.27130000  1.0
  N  N577  1  0.64800000  0.78950000  0.97260000  1.0
  N  N578  1  0.73820000  0.82250000  0.06314000  1.0
  N  N579  1  0.65290000  0.73190000  0.05923000  1.0
  N  N580  1  0.41330000  0.15740000  0.40722000  1.0
  N  N581  1  0.78000000  0.81280000  0.42140000  1.0
  N  N582  1  0.77590000  0.02910000  0.77170000  1.0
  N  N583  1  0.62280000  0.03730000  0.55890000  1.0
  N  N584  1  0.62630000  0.98880000  0.47315000  1.0
  N  N585  1  0.71150000  0.95010000  0.56485000  1.0
  N  N586  1  0.93900000  0.11570000  0.91210000  1.0
  N  N587  1  0.29570000  0.46970000  0.91656000  1.0
  N  N588  1  0.30040000  0.24640000  0.27130000  1.0
  N  N589  1  0.14800000  0.28950000  0.97260000  1.0
  N  N590  1  0.23820000  0.32250000  0.06314000  1.0
  N  N591  1  0.15290000  0.23190000  0.05923000  1.0
