# generated using pymatgen
data_AgH12(C3N)6
_symmetry_space_group_name_H-M   'P 1'
_cell_length_a   21.99440000
_cell_length_b   16.66210000
_cell_length_c   25.63630000
_cell_angle_alpha   90.00000000
_cell_angle_beta   115.34000000
_cell_angle_gamma   90.00000000
_symmetry_Int_Tables_number   1
_chemical_formula_structural   AgH12(C3N)6
_chemical_formula_sum   'Ag16 H192 C288 N96'
_cell_volume   8491.05860736
_cell_formula_units_Z   16
loop_
 _symmetry_equiv_pos_site_id
 _symmetry_equiv_pos_as_xyz
  1  'x, y, z'
loop_
 _atom_site_type_symbol
 _atom_site_label
 _atom_site_symmetry_multiplicity
 _atom_site_fract_x
 _atom_site_fract_y
 _atom_site_fract_z
 _atom_site_occupancy
  Ag  Ag0  1  0.77378000  0.70901000  0.36815000  1.0
  Ag  Ag1  1  0.29535000  0.00221000  0.86757000  1.0
  Ag  Ag2  1  0.27378000  0.20901000  0.36815000  1.0
  Ag  Ag3  1  0.79535000  0.50221000  0.86757000  1.0
  Ag  Ag4  1  0.22622000  0.70901000  0.13185000  1.0
  Ag  Ag5  1  0.70465000  0.00221000  0.63243000  1.0
  Ag  Ag6  1  0.72622000  0.20901000  0.13185000  1.0
  Ag  Ag7  1  0.20465000  0.50221000  0.63243000  1.0
  Ag  Ag8  1  0.22622000  0.29099000  0.63185000  1.0
  Ag  Ag9  1  0.70465000  0.99779000  0.13243000  1.0
  Ag  Ag10  1  0.72622000  0.79099000  0.63185000  1.0
  Ag  Ag11  1  0.20465000  0.49779000  0.13243000  1.0
  Ag  Ag12  1  0.77378000  0.29099000  0.86815000  1.0
  Ag  Ag13  1  0.29535000  0.99779000  0.36757000  1.0
  Ag  Ag14  1  0.27378000  0.79099000  0.86815000  1.0
  Ag  Ag15  1  0.79535000  0.49779000  0.36757000  1.0
  H  H16  1  0.90210000  0.40360000  0.85220000  1.0
  H  H17  1  0.08520000  0.04040000  0.38960000  1.0
  H  H18  1  0.88500000  0.81030000  0.34910000  1.0
  H  H19  1  0.00080000  0.38340000  0.04950000  1.0
  H  H20  1  0.26400000  0.13260000  0.03660000  1.0
  H  H21  1  0.31140000  0.06600000  0.98470000  1.0
  H  H22  1  0.24550000  0.08130000  0.53870000  1.0
  H  H23  1  0.98090000  0.88440000  0.39350000  1.0
  H  H24  1  0.29380000  0.14770000  0.48860000  1.0
  H  H25  1  0.97510000  0.83740000  0.54540000  1.0
  H  H26  1  0.27590000  0.18800000  0.16060000  1.0
  H  H27  1  0.13830000  0.11080000  0.34450000  1.0
  H  H28  1  0.00150000  0.33510000  0.89600000  1.0
  H  H29  1  0.22800000  0.06800000  0.65590000  1.0
  H  H30  1  0.16410000  0.27480000  0.26370000  1.0
  H  H31  1  0.87800000  0.76640000  0.49500000  1.0
  H  H32  1  0.32140000  0.17620000  0.25920000  1.0
  H  H33  1  0.90210000  0.45380000  0.00020000  1.0
  H  H34  1  0.11380000  0.29130000  0.16540000  1.0
  H  H35  1  0.11640000  0.20430000  0.88630000  1.0
  H  H36  1  0.09530000  0.91330000  0.66850000  1.0
  H  H37  1  0.27640000  0.07950000  0.75440000  1.0
  H  H38  1  0.15140000  0.92520000  0.76680000  1.0
  H  H39  1  0.16510000  0.12980000  0.83910000  1.0
  H  H40  1  0.40210000  0.90360000  0.85220000  1.0
  H  H41  1  0.58520000  0.54040000  0.38960000  1.0
  H  H42  1  0.38500000  0.31030000  0.34910000  1.0
  H  H43  1  0.50080000  0.88340000  0.04950000  1.0
  H  H44  1  0.76400000  0.63260000  0.03660000  1.0
  H  H45  1  0.81140000  0.56600000  0.98470000  1.0
  H  H46  1  0.74550000  0.58130000  0.53870000  1.0
  H  H47  1  0.48090000  0.38440000  0.39350000  1.0
  H  H48  1  0.79380000  0.64770000  0.48860000  1.0
  H  H49  1  0.47510000  0.33740000  0.54540000  1.0
  H  H50  1  0.77590000  0.68800000  0.16060000  1.0
  H  H51  1  0.63830000  0.61080000  0.34450000  1.0
  H  H52  1  0.50150000  0.83510000  0.89600000  1.0
  H  H53  1  0.72800000  0.56800000  0.65590000  1.0
  H  H54  1  0.66410000  0.77480000  0.26370000  1.0
  H  H55  1  0.37800000  0.26640000  0.49500000  1.0
  H  H56  1  0.82140000  0.67620000  0.25920000  1.0
  H  H57  1  0.40210000  0.95380000  0.00020000  1.0
  H  H58  1  0.61380000  0.79130000  0.16540000  1.0
  H  H59  1  0.61640000  0.70430000  0.88630000  1.0
  H  H60  1  0.59530000  0.41330000  0.66850000  1.0
  H  H61  1  0.77640000  0.57950000  0.75440000  1.0
  H  H62  1  0.65140000  0.42520000  0.76680000  1.0
  H  H63  1  0.66510000  0.62980000  0.83910000  1.0
  H  H64  1  0.09790000  0.40360000  0.64780000  1.0
  H  H65  1  0.91480000  0.04040000  0.11040000  1.0
  H  H66  1  0.11500000  0.81030000  0.15090000  1.0
  H  H67  1  0.99920000  0.38340000  0.45050000  1.0
  H  H68  1  0.73600000  0.13260000  0.46340000  1.0
  H  H69  1  0.68860000  0.06600000  0.51530000  1.0
  H  H70  1  0.75450000  0.08130000  0.96130000  1.0
  H  H71  1  0.01910000  0.88440000  0.10650000  1.0
  H  H72  1  0.70620000  0.14770000  0.01140000  1.0
  H  H73  1  0.02490000  0.83740000  0.95460000  1.0
  H  H74  1  0.72410000  0.18800000  0.33940000  1.0
  H  H75  1  0.86170000  0.11080000  0.15550000  1.0
  H  H76  1  0.99850000  0.33510000  0.60400000  1.0
  H  H77  1  0.77200000  0.06800000  0.84410000  1.0
  H  H78  1  0.83590000  0.27480000  0.23630000  1.0
  H  H79  1  0.12200000  0.76640000  0.00500000  1.0
  H  H80  1  0.67860000  0.17620000  0.24080000  1.0
  H  H81  1  0.09790000  0.45380000  0.49980000  1.0
  H  H82  1  0.88620000  0.29130000  0.33460000  1.0
  H  H83  1  0.88360000  0.20430000  0.61370000  1.0
  H  H84  1  0.90470000  0.91330000  0.83150000  1.0
  H  H85  1  0.72360000  0.07950000  0.74560000  1.0
  H  H86  1  0.84860000  0.92520000  0.73320000  1.0
  H  H87  1  0.83490000  0.12980000  0.66090000  1.0
  H  H88  1  0.59790000  0.90360000  0.64780000  1.0
  H  H89  1  0.41480000  0.54040000  0.11040000  1.0
  H  H90  1  0.61500000  0.31030000  0.15090000  1.0
  H  H91  1  0.49920000  0.88340000  0.45050000  1.0
  H  H92  1  0.23600000  0.63260000  0.46340000  1.0
  H  H93  1  0.18860000  0.56600000  0.51530000  1.0
  H  H94  1  0.25450000  0.58130000  0.96130000  1.0
  H  H95  1  0.51910000  0.38440000  0.10650000  1.0
  H  H96  1  0.20620000  0.64770000  0.01140000  1.0
  H  H97  1  0.52490000  0.33740000  0.95460000  1.0
  H  H98  1  0.22410000  0.68800000  0.33940000  1.0
  H  H99  1  0.36170000  0.61080000  0.15550000  1.0
  H  H100  1  0.49850000  0.83510000  0.60400000  1.0
  H  H101  1  0.27200000  0.56800000  0.84410000  1.0
  H  H102  1  0.33590000  0.77480000  0.23630000  1.0
  H  H103  1  0.62200000  0.26640000  0.00500000  1.0
  H  H104  1  0.17860000  0.67620000  0.24080000  1.0
  H  H105  1  0.59790000  0.95380000  0.49980000  1.0
  H  H106  1  0.38620000  0.79130000  0.33460000  1.0
  H  H107  1  0.38360000  0.70430000  0.61370000  1.0
  H  H108  1  0.40470000  0.41330000  0.83150000  1.0
  H  H109  1  0.22360000  0.57950000  0.74560000  1.0
  H  H110  1  0.34860000  0.42520000  0.73320000  1.0
  H  H111  1  0.33490000  0.62980000  0.66090000  1.0
  H  H112  1  0.09790000  0.59640000  0.14780000  1.0
  H  H113  1  0.91480000  0.95960000  0.61040000  1.0
  H  H114  1  0.11500000  0.18970000  0.65090000  1.0
  H  H115  1  0.99920000  0.61660000  0.95050000  1.0
  H  H116  1  0.73600000  0.86740000  0.96340000  1.0
  H  H117  1  0.68860000  0.93400000  0.01530000  1.0
  H  H118  1  0.75450000  0.91870000  0.46130000  1.0
  H  H119  1  0.01910000  0.11560000  0.60650000  1.0
  H  H120  1  0.70620000  0.85230000  0.51140000  1.0
  H  H121  1  0.02490000  0.16260000  0.45460000  1.0
  H  H122  1  0.72410000  0.81200000  0.83940000  1.0
  H  H123  1  0.86170000  0.88920000  0.65550000  1.0
  H  H124  1  0.99850000  0.66490000  0.10400000  1.0
  H  H125  1  0.77200000  0.93200000  0.34410000  1.0
  H  H126  1  0.83590000  0.72520000  0.73630000  1.0
  H  H127  1  0.12200000  0.23360000  0.50500000  1.0
  H  H128  1  0.67860000  0.82380000  0.74080000  1.0
  H  H129  1  0.09790000  0.54620000  0.99980000  1.0
  H  H130  1  0.88620000  0.70870000  0.83460000  1.0
  H  H131  1  0.88360000  0.79570000  0.11370000  1.0
  H  H132  1  0.90470000  0.08670000  0.33150000  1.0
  H  H133  1  0.72360000  0.92050000  0.24560000  1.0
  H  H134  1  0.84860000  0.07480000  0.23320000  1.0
  H  H135  1  0.83490000  0.87020000  0.16090000  1.0
  H  H136  1  0.59790000  0.09640000  0.14780000  1.0
  H  H137  1  0.41480000  0.45960000  0.61040000  1.0
  H  H138  1  0.61500000  0.68970000  0.65090000  1.0
  H  H139  1  0.49920000  0.11660000  0.95050000  1.0
  H  H140  1  0.23600000  0.36740000  0.96340000  1.0
  H  H141  1  0.18860000  0.43400000  0.01530000  1.0
  H  H142  1  0.25450000  0.41870000  0.46130000  1.0
  H  H143  1  0.51910000  0.61560000  0.60650000  1.0
  H  H144  1  0.20620000  0.35230000  0.51140000  1.0
  H  H145  1  0.52490000  0.66260000  0.45460000  1.0
  H  H146  1  0.22410000  0.31200000  0.83940000  1.0
  H  H147  1  0.36170000  0.38920000  0.65550000  1.0
  H  H148  1  0.49850000  0.16490000  0.10400000  1.0
  H  H149  1  0.27200000  0.43200000  0.34410000  1.0
  H  H150  1  0.33590000  0.22520000  0.73630000  1.0
  H  H151  1  0.62200000  0.73360000  0.50500000  1.0
  H  H152  1  0.17860000  0.32380000  0.74080000  1.0
  H  H153  1  0.59790000  0.04620000  0.99980000  1.0
  H  H154  1  0.38620000  0.20870000  0.83460000  1.0
  H  H155  1  0.38360000  0.29570000  0.11370000  1.0
  H  H156  1  0.40470000  0.58670000  0.33150000  1.0
  H  H157  1  0.22360000  0.42050000  0.24560000  1.0
  H  H158  1  0.34860000  0.57480000  0.23320000  1.0
  H  H159  1  0.33490000  0.37020000  0.16090000  1.0
  H  H160  1  0.90210000  0.59640000  0.35220000  1.0
  H  H161  1  0.08520000  0.95960000  0.88960000  1.0
  H  H162  1  0.88500000  0.18970000  0.84910000  1.0
  H  H163  1  0.00080000  0.61660000  0.54950000  1.0
  H  H164  1  0.26400000  0.86740000  0.53660000  1.0
  H  H165  1  0.31140000  0.93400000  0.48470000  1.0
  H  H166  1  0.24550000  0.91870000  0.03870000  1.0
  H  H167  1  0.98090000  0.11560000  0.89350000  1.0
  H  H168  1  0.29380000  0.85230000  0.98860000  1.0
  H  H169  1  0.97510000  0.16260000  0.04540000  1.0
  H  H170  1  0.27590000  0.81200000  0.66060000  1.0
  H  H171  1  0.13830000  0.88920000  0.84450000  1.0
  H  H172  1  0.00150000  0.66490000  0.39600000  1.0
  H  H173  1  0.22800000  0.93200000  0.15590000  1.0
  H  H174  1  0.16410000  0.72520000  0.76370000  1.0
  H  H175  1  0.87800000  0.23360000  0.99500000  1.0
  H  H176  1  0.32140000  0.82380000  0.75920000  1.0
  H  H177  1  0.90210000  0.54620000  0.50020000  1.0
  H  H178  1  0.11380000  0.70870000  0.66540000  1.0
  H  H179  1  0.11640000  0.79570000  0.38630000  1.0
  H  H180  1  0.09530000  0.08670000  0.16850000  1.0
  H  H181  1  0.27640000  0.92050000  0.25440000  1.0
  H  H182  1  0.15140000  0.07480000  0.26680000  1.0
  H  H183  1  0.16510000  0.87020000  0.33910000  1.0
  H  H184  1  0.40210000  0.09640000  0.35220000  1.0
  H  H185  1  0.58520000  0.45960000  0.88960000  1.0
  H  H186  1  0.38500000  0.68970000  0.84910000  1.0
  H  H187  1  0.50080000  0.11660000  0.54950000  1.0
  H  H188  1  0.76400000  0.36740000  0.53660000  1.0
  H  H189  1  0.81140000  0.43400000  0.48470000  1.0
  H  H190  1  0.74550000  0.41870000  0.03870000  1.0
  H  H191  1  0.48090000  0.61560000  0.89350000  1.0
  H  H192  1  0.79380000  0.35230000  0.98860000  1.0
  H  H193  1  0.47510000  0.66260000  0.04540000  1.0
  H  H194  1  0.77590000  0.31200000  0.66060000  1.0
  H  H195  1  0.63830000  0.38920000  0.84450000  1.0
  H  H196  1  0.50150000  0.16490000  0.39600000  1.0
  H  H197  1  0.72800000  0.43200000  0.15590000  1.0
  H  H198  1  0.66410000  0.22520000  0.76370000  1.0
  H  H199  1  0.37800000  0.73360000  0.99500000  1.0
  H  H200  1  0.82140000  0.32380000  0.75920000  1.0
  H  H201  1  0.40210000  0.04620000  0.50020000  1.0
  H  H202  1  0.61380000  0.20870000  0.66540000  1.0
  H  H203  1  0.61640000  0.29570000  0.38630000  1.0
  H  H204  1  0.59530000  0.58670000  0.16850000  1.0
  H  H205  1  0.77640000  0.42050000  0.25440000  1.0
  H  H206  1  0.65140000  0.57480000  0.26680000  1.0
  H  H207  1  0.66510000  0.37020000  0.33910000  1.0
  C  C208  1  0.15370000  0.22000000  0.00100000  1.0
  C  C209  1  0.12790000  0.00720000  0.50190000  1.0
  C  C210  1  0.92230000  0.39980000  0.89220000  1.0
  C  C211  1  0.12780000  0.06170000  0.41090000  1.0
  C  C212  1  0.90310000  0.81660000  0.38890000  1.0
  C  C213  1  0.98190000  0.38700000  0.00950000  1.0
  C  C214  1  0.07480000  0.30140000  0.00670000  1.0
  C  C215  1  0.15940000  0.05200000  0.46940000  1.0
  C  C216  1  0.15850000  0.98590000  0.65120000  1.0
  C  C217  1  0.24340000  0.13350000  0.99650000  1.0
  C  C218  1  0.27110000  0.09320000  0.96470000  1.0
  C  C219  1  0.22280000  0.08580000  0.49880000  1.0
  C  C220  1  0.04970000  0.92270000  0.50510000  1.0
  C  C221  1  0.18390000  0.17540000  0.96660000  1.0
  C  C222  1  0.96070000  0.86160000  0.41530000  1.0
  C  C223  1  0.25130000  0.12570000  0.46830000  1.0
  C  C224  1  0.12770000  0.97540000  0.58760000  1.0
  C  C225  1  0.95730000  0.83400000  0.50540000  1.0
  C  C226  1  0.19030000  0.24310000  0.15190000  1.0
  C  C227  1  0.25240000  0.20690000  0.18090000  1.0
  C  C228  1  0.15820000  0.25180000  0.08770000  1.0
  C  C229  1  0.16050000  0.10370000  0.38430000  1.0
  C  C230  1  0.98210000  0.35790000  0.91830000  1.0
  C  C231  1  0.98870000  0.87260000  0.47480000  1.0
  C  C232  1  0.01270000  0.35020000  0.97740000  1.0
  C  C233  1  0.21190000  0.03760000  0.67770000  1.0
  C  C234  1  0.18690000  0.25710000  0.24250000  1.0
  C  C235  1  0.89910000  0.79070000  0.47440000  1.0
  C  C236  1  0.27900000  0.19920000  0.24000000  1.0
  C  C237  1  0.92220000  0.42880000  0.97910000  1.0
  C  C238  1  0.15620000  0.26790000  0.18340000  1.0
  C  C239  1  0.15540000  0.17530000  0.90730000  1.0
  C  C240  1  0.13350000  0.94530000  0.68500000  1.0
  C  C241  1  0.24100000  0.04360000  0.73690000  1.0
  C  C242  1  0.16730000  0.95390000  0.74410000  1.0
  C  C243  1  0.18570000  0.13140000  0.87930000  1.0
  C  C244  1  0.65370000  0.72000000  0.00100000  1.0
  C  C245  1  0.62790000  0.50720000  0.50190000  1.0
  C  C246  1  0.42230000  0.89980000  0.89220000  1.0
  C  C247  1  0.62780000  0.56170000  0.41090000  1.0
  C  C248  1  0.40310000  0.31660000  0.38890000  1.0
  C  C249  1  0.48190000  0.88700000  0.00950000  1.0
  C  C250  1  0.57480000  0.80140000  0.00670000  1.0
  C  C251  1  0.65940000  0.55200000  0.46940000  1.0
  C  C252  1  0.65850000  0.48590000  0.65120000  1.0
  C  C253  1  0.74340000  0.63350000  0.99650000  1.0
  C  C254  1  0.77110000  0.59320000  0.96470000  1.0
  C  C255  1  0.72280000  0.58580000  0.49880000  1.0
  C  C256  1  0.54970000  0.42270000  0.50510000  1.0
  C  C257  1  0.68390000  0.67540000  0.96660000  1.0
  C  C258  1  0.46070000  0.36160000  0.41530000  1.0
  C  C259  1  0.75130000  0.62570000  0.46830000  1.0
  C  C260  1  0.62770000  0.47540000  0.58760000  1.0
  C  C261  1  0.45730000  0.33400000  0.50540000  1.0
  C  C262  1  0.69030000  0.74310000  0.15190000  1.0
  C  C263  1  0.75240000  0.70690000  0.18090000  1.0
  C  C264  1  0.65820000  0.75180000  0.08770000  1.0
  C  C265  1  0.66050000  0.60370000  0.38430000  1.0
  C  C266  1  0.48210000  0.85790000  0.91830000  1.0
  C  C267  1  0.48870000  0.37260000  0.47480000  1.0
  C  C268  1  0.51270000  0.85020000  0.97740000  1.0
  C  C269  1  0.71190000  0.53760000  0.67770000  1.0
  C  C270  1  0.68690000  0.75710000  0.24250000  1.0
  C  C271  1  0.39910000  0.29070000  0.47440000  1.0
  C  C272  1  0.77900000  0.69920000  0.24000000  1.0
  C  C273  1  0.42220000  0.92880000  0.97910000  1.0
  C  C274  1  0.65620000  0.76790000  0.18340000  1.0
  C  C275  1  0.65540000  0.67530000  0.90730000  1.0
  C  C276  1  0.63350000  0.44530000  0.68500000  1.0
  C  C277  1  0.74100000  0.54360000  0.73690000  1.0
  C  C278  1  0.66730000  0.45390000  0.74410000  1.0
  C  C279  1  0.68570000  0.63140000  0.87930000  1.0
  C  C280  1  0.84630000  0.22000000  0.49900000  1.0
  C  C281  1  0.87210000  0.00720000  0.99810000  1.0
  C  C282  1  0.07770000  0.39980000  0.60780000  1.0
  C  C283  1  0.87220000  0.06170000  0.08910000  1.0
  C  C284  1  0.09690000  0.81660000  0.11110000  1.0
  C  C285  1  0.01810000  0.38700000  0.49050000  1.0
  C  C286  1  0.92520000  0.30140000  0.49330000  1.0
  C  C287  1  0.84060000  0.05200000  0.03060000  1.0
  C  C288  1  0.84150000  0.98590000  0.84880000  1.0
  C  C289  1  0.75660000  0.13350000  0.50350000  1.0
  C  C290  1  0.72890000  0.09320000  0.53530000  1.0
  C  C291  1  0.77720000  0.08580000  0.00120000  1.0
  C  C292  1  0.95030000  0.92270000  0.99490000  1.0
  C  C293  1  0.81610000  0.17540000  0.53340000  1.0
  C  C294  1  0.03930000  0.86160000  0.08470000  1.0
  C  C295  1  0.74870000  0.12570000  0.03170000  1.0
  C  C296  1  0.87230000  0.97540000  0.91240000  1.0
  C  C297  1  0.04270000  0.83400000  0.99460000  1.0
  C  C298  1  0.80970000  0.24310000  0.34810000  1.0
  C  C299  1  0.74760000  0.20690000  0.31910000  1.0
  C  C300  1  0.84180000  0.25180000  0.41230000  1.0
  C  C301  1  0.83950000  0.10370000  0.11570000  1.0
  C  C302  1  0.01790000  0.35790000  0.58170000  1.0
  C  C303  1  0.01130000  0.87260000  0.02520000  1.0
  C  C304  1  0.98730000  0.35020000  0.52260000  1.0
  C  C305  1  0.78810000  0.03760000  0.82230000  1.0
  C  C306  1  0.81310000  0.25710000  0.25750000  1.0
  C  C307  1  0.10090000  0.79070000  0.02560000  1.0
  C  C308  1  0.72100000  0.19920000  0.26000000  1.0
  C  C309  1  0.07780000  0.42880000  0.52090000  1.0
  C  C310  1  0.84380000  0.26790000  0.31660000  1.0
  C  C311  1  0.84460000  0.17530000  0.59270000  1.0
  C  C312  1  0.86650000  0.94530000  0.81500000  1.0
  C  C313  1  0.75900000  0.04360000  0.76310000  1.0
  C  C314  1  0.83270000  0.95390000  0.75590000  1.0
  C  C315  1  0.81430000  0.13140000  0.62070000  1.0
  C  C316  1  0.34630000  0.72000000  0.49900000  1.0
  C  C317  1  0.37210000  0.50720000  0.99810000  1.0
  C  C318  1  0.57770000  0.89980000  0.60780000  1.0
  C  C319  1  0.37220000  0.56170000  0.08910000  1.0
  C  C320  1  0.59690000  0.31660000  0.11110000  1.0
  C  C321  1  0.51810000  0.88700000  0.49050000  1.0
  C  C322  1  0.42520000  0.80140000  0.49330000  1.0
  C  C323  1  0.34060000  0.55200000  0.03060000  1.0
  C  C324  1  0.34150000  0.48590000  0.84880000  1.0
  C  C325  1  0.25660000  0.63350000  0.50350000  1.0
  C  C326  1  0.22890000  0.59320000  0.53530000  1.0
  C  C327  1  0.27720000  0.58580000  0.00120000  1.0
  C  C328  1  0.45030000  0.42270000  0.99490000  1.0
  C  C329  1  0.31610000  0.67540000  0.53340000  1.0
  C  C330  1  0.53930000  0.36160000  0.08470000  1.0
  C  C331  1  0.24870000  0.62570000  0.03170000  1.0
  C  C332  1  0.37230000  0.47540000  0.91240000  1.0
  C  C333  1  0.54270000  0.33400000  0.99460000  1.0
  C  C334  1  0.30970000  0.74310000  0.34810000  1.0
  C  C335  1  0.24760000  0.70690000  0.31910000  1.0
  C  C336  1  0.34180000  0.75180000  0.41230000  1.0
  C  C337  1  0.33950000  0.60370000  0.11570000  1.0
  C  C338  1  0.51790000  0.85790000  0.58170000  1.0
  C  C339  1  0.51130000  0.37260000  0.02520000  1.0
  C  C340  1  0.48730000  0.85020000  0.52260000  1.0
  C  C341  1  0.28810000  0.53760000  0.82230000  1.0
  C  C342  1  0.31310000  0.75710000  0.25750000  1.0
  C  C343  1  0.60090000  0.29070000  0.02560000  1.0
  C  C344  1  0.22100000  0.69920000  0.26000000  1.0
  C  C345  1  0.57780000  0.92880000  0.52090000  1.0
  C  C346  1  0.34380000  0.76790000  0.31660000  1.0
  C  C347  1  0.34460000  0.67530000  0.59270000  1.0
  C  C348  1  0.36650000  0.44530000  0.81500000  1.0
  C  C349  1  0.25900000  0.54360000  0.76310000  1.0
  C  C350  1  0.33270000  0.45390000  0.75590000  1.0
  C  C351  1  0.31430000  0.63140000  0.62070000  1.0
  C  C352  1  0.84630000  0.78000000  0.99900000  1.0
  C  C353  1  0.87210000  0.99280000  0.49810000  1.0
  C  C354  1  0.07770000  0.60020000  0.10780000  1.0
  C  C355  1  0.87220000  0.93830000  0.58910000  1.0
  C  C356  1  0.09690000  0.18340000  0.61110000  1.0
  C  C357  1  0.01810000  0.61300000  0.99050000  1.0
  C  C358  1  0.92520000  0.69860000  0.99330000  1.0
  C  C359  1  0.84060000  0.94800000  0.53060000  1.0
  C  C360  1  0.84150000  0.01410000  0.34880000  1.0
  C  C361  1  0.75660000  0.86650000  0.00350000  1.0
  C  C362  1  0.72890000  0.90680000  0.03530000  1.0
  C  C363  1  0.77720000  0.91420000  0.50120000  1.0
  C  C364  1  0.95030000  0.07730000  0.49490000  1.0
  C  C365  1  0.81610000  0.82460000  0.03340000  1.0
  C  C366  1  0.03930000  0.13840000  0.58470000  1.0
  C  C367  1  0.74870000  0.87430000  0.53170000  1.0
  C  C368  1  0.87230000  0.02460000  0.41240000  1.0
  C  C369  1  0.04270000  0.16600000  0.49460000  1.0
  C  C370  1  0.80970000  0.75690000  0.84810000  1.0
  C  C371  1  0.74760000  0.79310000  0.81910000  1.0
  C  C372  1  0.84180000  0.74820000  0.91230000  1.0
  C  C373  1  0.83950000  0.89630000  0.61570000  1.0
  C  C374  1  0.01790000  0.64210000  0.08170000  1.0
  C  C375  1  0.01130000  0.12740000  0.52520000  1.0
  C  C376  1  0.98730000  0.64980000  0.02260000  1.0
  C  C377  1  0.78810000  0.96240000  0.32230000  1.0
  C  C378  1  0.81310000  0.74290000  0.75750000  1.0
  C  C379  1  0.10090000  0.20930000  0.52560000  1.0
  C  C380  1  0.72100000  0.80080000  0.76000000  1.0
  C  C381  1  0.07780000  0.57120000  0.02090000  1.0
  C  C382  1  0.84380000  0.73210000  0.81660000  1.0
  C  C383  1  0.84460000  0.82470000  0.09270000  1.0
  C  C384  1  0.86650000  0.05470000  0.31500000  1.0
  C  C385  1  0.75900000  0.95640000  0.26310000  1.0
  C  C386  1  0.83270000  0.04610000  0.25590000  1.0
  C  C387  1  0.81430000  0.86860000  0.12070000  1.0
  C  C388  1  0.34630000  0.28000000  0.99900000  1.0
  C  C389  1  0.37210000  0.49280000  0.49810000  1.0
  C  C390  1  0.57770000  0.10020000  0.10780000  1.0
  C  C391  1  0.37220000  0.43830000  0.58910000  1.0
  C  C392  1  0.59690000  0.68340000  0.61110000  1.0
  C  C393  1  0.51810000  0.11300000  0.99050000  1.0
  C  C394  1  0.42520000  0.19860000  0.99330000  1.0
  C  C395  1  0.34060000  0.44800000  0.53060000  1.0
  C  C396  1  0.34150000  0.51410000  0.34880000  1.0
  C  C397  1  0.25660000  0.36650000  0.00350000  1.0
  C  C398  1  0.22890000  0.40680000  0.03530000  1.0
  C  C399  1  0.27720000  0.41420000  0.50120000  1.0
  C  C400  1  0.45030000  0.57730000  0.49490000  1.0
  C  C401  1  0.31610000  0.32460000  0.03340000  1.0
  C  C402  1  0.53930000  0.63840000  0.58470000  1.0
  C  C403  1  0.24870000  0.37430000  0.53170000  1.0
  C  C404  1  0.37230000  0.52460000  0.41240000  1.0
  C  C405  1  0.54270000  0.66600000  0.49460000  1.0
  C  C406  1  0.30970000  0.25690000  0.84810000  1.0
  C  C407  1  0.24760000  0.29310000  0.81910000  1.0
  C  C408  1  0.34180000  0.24820000  0.91230000  1.0
  C  C409  1  0.33950000  0.39630000  0.61570000  1.0
  C  C410  1  0.51790000  0.14210000  0.08170000  1.0
  C  C411  1  0.51130000  0.62740000  0.52520000  1.0
  C  C412  1  0.48730000  0.14980000  0.02260000  1.0
  C  C413  1  0.28810000  0.46240000  0.32230000  1.0
  C  C414  1  0.31310000  0.24290000  0.75750000  1.0
  C  C415  1  0.60090000  0.70930000  0.52560000  1.0
  C  C416  1  0.22100000  0.30080000  0.76000000  1.0
  C  C417  1  0.57780000  0.07120000  0.02090000  1.0
  C  C418  1  0.34380000  0.23210000  0.81660000  1.0
  C  C419  1  0.34460000  0.32470000  0.09270000  1.0
  C  C420  1  0.36650000  0.55470000  0.31500000  1.0
  C  C421  1  0.25900000  0.45640000  0.26310000  1.0
  C  C422  1  0.33270000  0.54610000  0.25590000  1.0
  C  C423  1  0.31430000  0.36860000  0.12070000  1.0
  C  C424  1  0.15370000  0.78000000  0.50100000  1.0
  C  C425  1  0.12790000  0.99280000  0.00190000  1.0
  C  C426  1  0.92230000  0.60020000  0.39220000  1.0
  C  C427  1  0.12780000  0.93830000  0.91090000  1.0
  C  C428  1  0.90310000  0.18340000  0.88890000  1.0
  C  C429  1  0.98190000  0.61300000  0.50950000  1.0
  C  C430  1  0.07480000  0.69860000  0.50670000  1.0
  C  C431  1  0.15940000  0.94800000  0.96940000  1.0
  C  C432  1  0.15850000  0.01410000  0.15120000  1.0
  C  C433  1  0.24340000  0.86650000  0.49650000  1.0
  C  C434  1  0.27110000  0.90680000  0.46470000  1.0
  C  C435  1  0.22280000  0.91420000  0.99880000  1.0
  C  C436  1  0.04970000  0.07730000  0.00510000  1.0
  C  C437  1  0.18390000  0.82460000  0.46660000  1.0
  C  C438  1  0.96070000  0.13840000  0.91530000  1.0
  C  C439  1  0.25130000  0.87430000  0.96830000  1.0
  C  C440  1  0.12770000  0.02460000  0.08760000  1.0
  C  C441  1  0.95730000  0.16600000  0.00540000  1.0
  C  C442  1  0.19030000  0.75690000  0.65190000  1.0
  C  C443  1  0.25240000  0.79310000  0.68090000  1.0
  C  C444  1  0.15820000  0.74820000  0.58770000  1.0
  C  C445  1  0.16050000  0.89630000  0.88430000  1.0
  C  C446  1  0.98210000  0.64210000  0.41830000  1.0
  C  C447  1  0.98870000  0.12740000  0.97480000  1.0
  C  C448  1  0.01270000  0.64980000  0.47740000  1.0
  C  C449  1  0.21190000  0.96240000  0.17770000  1.0
  C  C450  1  0.18690000  0.74290000  0.74250000  1.0
  C  C451  1  0.89910000  0.20930000  0.97440000  1.0
  C  C452  1  0.27900000  0.80080000  0.74000000  1.0
  C  C453  1  0.92220000  0.57120000  0.47910000  1.0
  C  C454  1  0.15620000  0.73210000  0.68340000  1.0
  C  C455  1  0.15540000  0.82470000  0.40730000  1.0
  C  C456  1  0.13350000  0.05470000  0.18500000  1.0
  C  C457  1  0.24100000  0.95640000  0.23690000  1.0
  C  C458  1  0.16730000  0.04610000  0.24410000  1.0
  C  C459  1  0.18570000  0.86860000  0.37930000  1.0
  C  C460  1  0.65370000  0.28000000  0.50100000  1.0
  C  C461  1  0.62790000  0.49280000  0.00190000  1.0
  C  C462  1  0.42230000  0.10020000  0.39220000  1.0
  C  C463  1  0.62780000  0.43830000  0.91090000  1.0
  C  C464  1  0.40310000  0.68340000  0.88890000  1.0
  C  C465  1  0.48190000  0.11300000  0.50950000  1.0
  C  C466  1  0.57480000  0.19860000  0.50670000  1.0
  C  C467  1  0.65940000  0.44800000  0.96940000  1.0
  C  C468  1  0.65850000  0.51410000  0.15120000  1.0
  C  C469  1  0.74340000  0.36650000  0.49650000  1.0
  C  C470  1  0.77110000  0.40680000  0.46470000  1.0
  C  C471  1  0.72280000  0.41420000  0.99880000  1.0
  C  C472  1  0.54970000  0.57730000  0.00510000  1.0
  C  C473  1  0.68390000  0.32460000  0.46660000  1.0
  C  C474  1  0.46070000  0.63840000  0.91530000  1.0
  C  C475  1  0.75130000  0.37430000  0.96830000  1.0
  C  C476  1  0.62770000  0.52460000  0.08760000  1.0
  C  C477  1  0.45730000  0.66600000  0.00540000  1.0
  C  C478  1  0.69030000  0.25690000  0.65190000  1.0
  C  C479  1  0.75240000  0.29310000  0.68090000  1.0
  C  C480  1  0.65820000  0.24820000  0.58770000  1.0
  C  C481  1  0.66050000  0.39630000  0.88430000  1.0
  C  C482  1  0.48210000  0.14210000  0.41830000  1.0
  C  C483  1  0.48870000  0.62740000  0.97480000  1.0
  C  C484  1  0.51270000  0.14980000  0.47740000  1.0
  C  C485  1  0.71190000  0.46240000  0.17770000  1.0
  C  C486  1  0.68690000  0.24290000  0.74250000  1.0
  C  C487  1  0.39910000  0.70930000  0.97440000  1.0
  C  C488  1  0.77900000  0.30080000  0.74000000  1.0
  C  C489  1  0.42220000  0.07120000  0.47910000  1.0
  C  C490  1  0.65620000  0.23210000  0.68340000  1.0
  C  C491  1  0.65540000  0.32470000  0.40730000  1.0
  C  C492  1  0.63350000  0.55470000  0.18500000  1.0
  C  C493  1  0.74100000  0.45640000  0.23690000  1.0
  C  C494  1  0.66730000  0.54610000  0.24410000  1.0
  C  C495  1  0.68570000  0.36860000  0.37930000  1.0
  N  N496  1  0.87140000  0.78130000  0.41750000  1.0
  N  N497  1  0.22190000  0.13480000  0.41160000  1.0
  N  N498  1  0.22070000  0.00010000  0.77080000  1.0
  N  N499  1  0.07410000  0.96100000  0.47230000  1.0
  N  N500  1  0.15600000  0.01750000  0.55910000  1.0
  N  N501  1  0.07480000  0.92730000  0.56280000  1.0
  N  N502  1  0.24380000  0.09060000  0.90720000  1.0
  N  N503  1  0.24650000  0.22340000  0.27120000  1.0
  N  N504  1  0.89200000  0.43510000  0.92170000  1.0
  N  N505  1  0.18620000  0.21290000  0.05850000  1.0
  N  N506  1  0.10370000  0.29900000  0.06410000  1.0
  N  N507  1  0.09760000  0.26060000  0.97320000  1.0
  N  N508  1  0.37140000  0.28130000  0.41750000  1.0
  N  N509  1  0.72190000  0.63480000  0.41160000  1.0
  N  N510  1  0.72070000  0.50010000  0.77080000  1.0
  N  N511  1  0.57410000  0.46100000  0.47230000  1.0
  N  N512  1  0.65600000  0.51750000  0.55910000  1.0
  N  N513  1  0.57480000  0.42730000  0.56280000  1.0
  N  N514  1  0.74380000  0.59060000  0.90720000  1.0
  N  N515  1  0.74650000  0.72340000  0.27120000  1.0
  N  N516  1  0.39200000  0.93510000  0.92170000  1.0
  N  N517  1  0.68620000  0.71290000  0.05850000  1.0
  N  N518  1  0.60370000  0.79900000  0.06410000  1.0
  N  N519  1  0.59760000  0.76060000  0.97320000  1.0
  N  N520  1  0.12860000  0.78130000  0.08250000  1.0
  N  N521  1  0.77810000  0.13480000  0.08840000  1.0
  N  N522  1  0.77930000  0.00010000  0.72920000  1.0
  N  N523  1  0.92590000  0.96100000  0.02770000  1.0
  N  N524  1  0.84400000  0.01750000  0.94090000  1.0
  N  N525  1  0.92520000  0.92730000  0.93720000  1.0
  N  N526  1  0.75620000  0.09060000  0.59280000  1.0
  N  N527  1  0.75350000  0.22340000  0.22880000  1.0
  N  N528  1  0.10800000  0.43510000  0.57830000  1.0
  N  N529  1  0.81380000  0.21290000  0.44150000  1.0
  N  N530  1  0.89630000  0.29900000  0.43590000  1.0
  N  N531  1  0.90240000  0.26060000  0.52680000  1.0
  N  N532  1  0.62860000  0.28130000  0.08250000  1.0
  N  N533  1  0.27810000  0.63480000  0.08840000  1.0
  N  N534  1  0.27930000  0.50010000  0.72920000  1.0
  N  N535  1  0.42590000  0.46100000  0.02770000  1.0
  N  N536  1  0.34400000  0.51750000  0.94090000  1.0
  N  N537  1  0.42520000  0.42730000  0.93720000  1.0
  N  N538  1  0.25620000  0.59060000  0.59280000  1.0
  N  N539  1  0.25350000  0.72340000  0.22880000  1.0
  N  N540  1  0.60800000  0.93510000  0.57830000  1.0
  N  N541  1  0.31380000  0.71290000  0.44150000  1.0
  N  N542  1  0.39630000  0.79900000  0.43590000  1.0
  N  N543  1  0.40240000  0.76060000  0.52680000  1.0
  N  N544  1  0.12860000  0.21870000  0.58250000  1.0
  N  N545  1  0.77810000  0.86520000  0.58840000  1.0
  N  N546  1  0.77930000  0.99990000  0.22920000  1.0
  N  N547  1  0.92590000  0.03900000  0.52770000  1.0
  N  N548  1  0.84400000  0.98250000  0.44090000  1.0
  N  N549  1  0.92520000  0.07270000  0.43720000  1.0
  N  N550  1  0.75620000  0.90940000  0.09280000  1.0
  N  N551  1  0.75350000  0.77660000  0.72880000  1.0
  N  N552  1  0.10800000  0.56490000  0.07830000  1.0
  N  N553  1  0.81380000  0.78710000  0.94150000  1.0
  N  N554  1  0.89630000  0.70100000  0.93590000  1.0
  N  N555  1  0.90240000  0.73940000  0.02680000  1.0
  N  N556  1  0.62860000  0.71870000  0.58250000  1.0
  N  N557  1  0.27810000  0.36520000  0.58840000  1.0
  N  N558  1  0.27930000  0.49990000  0.22920000  1.0
  N  N559  1  0.42590000  0.53900000  0.52770000  1.0
  N  N560  1  0.34400000  0.48250000  0.44090000  1.0
  N  N561  1  0.42520000  0.57270000  0.43720000  1.0
  N  N562  1  0.25620000  0.40940000  0.09280000  1.0
  N  N563  1  0.25350000  0.27660000  0.72880000  1.0
  N  N564  1  0.60800000  0.06490000  0.07830000  1.0
  N  N565  1  0.31380000  0.28710000  0.94150000  1.0
  N  N566  1  0.39630000  0.20100000  0.93590000  1.0
  N  N567  1  0.40240000  0.23940000  0.02680000  1.0
  N  N568  1  0.87140000  0.21870000  0.91750000  1.0
  N  N569  1  0.22190000  0.86520000  0.91160000  1.0
  N  N570  1  0.22070000  0.99990000  0.27080000  1.0
  N  N571  1  0.07410000  0.03900000  0.97230000  1.0
  N  N572  1  0.15600000  0.98250000  0.05910000  1.0
  N  N573  1  0.07480000  0.07270000  0.06280000  1.0
  N  N574  1  0.24380000  0.90940000  0.40720000  1.0
  N  N575  1  0.24650000  0.77660000  0.77120000  1.0
  N  N576  1  0.89200000  0.56490000  0.42170000  1.0
  N  N577  1  0.18620000  0.78710000  0.55850000  1.0
  N  N578  1  0.10370000  0.70100000  0.56410000  1.0
  N  N579  1  0.09760000  0.73940000  0.47320000  1.0
  N  N580  1  0.37140000  0.71870000  0.91750000  1.0
  N  N581  1  0.72190000  0.36520000  0.91160000  1.0
  N  N582  1  0.72070000  0.49990000  0.27080000  1.0
  N  N583  1  0.57410000  0.53900000  0.97230000  1.0
  N  N584  1  0.65600000  0.48250000  0.05910000  1.0
  N  N585  1  0.57480000  0.57270000  0.06280000  1.0
  N  N586  1  0.74380000  0.40940000  0.40720000  1.0
  N  N587  1  0.74650000  0.27660000  0.77120000  1.0
  N  N588  1  0.39200000  0.06490000  0.42170000  1.0
  N  N589  1  0.68620000  0.28710000  0.55850000  1.0
  N  N590  1  0.60370000  0.20100000  0.56410000  1.0
  N  N591  1  0.59760000  0.23940000  0.47320000  1.0
