# generated using pymatgen
data_V10Zn5H48C48(N9O5)4
_symmetry_space_group_name_H-M   'P 1'
_cell_length_a   13.07370000
_cell_length_b   20.21920000
_cell_length_c   19.61960000
_cell_angle_alpha   90.00000000
_cell_angle_beta   115.52900000
_cell_angle_gamma   90.00000000
_symmetry_Int_Tables_number   1
_chemical_formula_structural   V10Zn5H48C48(N9O5)4
_chemical_formula_sum   'V20 Zn10 H96 C96 N72 O40'
_cell_volume   4679.89345019
_cell_formula_units_Z   2
loop_
 _symmetry_equiv_pos_site_id
 _symmetry_equiv_pos_as_xyz
  1  'x, y, z'
loop_
 _atom_site_type_symbol
 _atom_site_label
 _atom_site_symmetry_multiplicity
 _atom_site_fract_x
 _atom_site_fract_y
 _atom_site_fract_z
 _atom_site_occupancy
  V  V0  1  0.16455000  0.55212000  0.99149000  1.0
  V  V1  1  0.03656000  0.41448000  0.95075000  1.0
  V  V2  1  0.78478000  0.52927000  0.55939000  1.0
  V  V3  1  0.02341000  0.61231000  0.63993000  1.0
  V  V4  1  0.17942000  0.58792000  0.54875000  1.0
  V  V5  1  0.83545000  0.05212000  0.50851000  1.0
  V  V6  1  0.96344000  0.91448000  0.54925000  1.0
  V  V7  1  0.21522000  0.02927000  0.94061000  1.0
  V  V8  1  0.97659000  0.11231000  0.86007000  1.0
  V  V9  1  0.82058000  0.08792000  0.95125000  1.0
  V  V10  1  0.83545000  0.44788000  0.00851000  1.0
  V  V11  1  0.96344000  0.58552000  0.04925000  1.0
  V  V12  1  0.21522000  0.47073000  0.44061000  1.0
  V  V13  1  0.97659000  0.38769000  0.36007000  1.0
  V  V14  1  0.82058000  0.41208000  0.45125000  1.0
  V  V15  1  0.16455000  0.94788000  0.49149000  1.0
  V  V16  1  0.03656000  0.08552000  0.45075000  1.0
  V  V17  1  0.78478000  0.97073000  0.05939000  1.0
  V  V18  1  0.02341000  0.88769000  0.13993000  1.0
  V  V19  1  0.17942000  0.91208000  0.04875000  1.0
  Zn  Zn20  1  0.14444000  0.62658000  0.82507000  1.0
  Zn  Zn21  1  0.89755000  0.46495000  0.75113000  1.0
  Zn  Zn22  1  0.85556000  0.12658000  0.67493000  1.0
  Zn  Zn23  1  0.10245000  0.96495000  0.74887000  1.0
  Zn  Zn24  1  0.85556000  0.37342000  0.17493000  1.0
  Zn  Zn25  1  0.10245000  0.53505000  0.24887000  1.0
  Zn  Zn26  1  0.14444000  0.87342000  0.32507000  1.0
  Zn  Zn27  1  0.89755000  0.03505000  0.25113000  1.0
  Zn  Zn28  1  0.50000000  0.50000000  0.50000000  1.0
  Zn  Zn29  1  0.50000000  0.00000000  0.00000000  1.0
  H  H30  1  0.90690000  0.83280000  0.91980000  1.0
  H  H31  1  0.89200000  0.76170000  0.94640000  1.0
  H  H32  1  0.00630000  0.75540000  0.73400000  1.0
  H  H33  1  0.03530000  0.68710000  0.92720000  1.0
  H  H34  1  0.80970000  0.67680000  0.91660000  1.0
  H  H35  1  0.68970000  0.64340000  0.88200000  1.0
  H  H36  1  0.81650000  0.61210000  0.68230000  1.0
  H  H37  1  0.82840000  0.54220000  0.86880000  1.0
  H  H38  1  0.46130000  0.67150000  0.70890000  1.0
  H  H39  1  0.55980000  0.63490000  0.77560000  1.0
  H  H40  1  0.39340000  0.66020000  0.93920000  1.0
  H  H41  1  0.28020000  0.64180000  0.72280000  1.0
  H  H42  1  0.38530000  0.82290000  0.65820000  1.0
  H  H43  1  0.36890000  0.75390000  0.68860000  1.0
  H  H44  1  0.25910000  0.84770000  0.86240000  1.0
  H  H45  1  0.23790000  0.89870000  0.66666667  1.0
  H  H46  1  0.58170000  0.94460000  0.72610000  1.0
  H  H47  1  0.46190000  0.91100000  0.69540000  1.0
  H  H48  1  0.54830000  0.90150000  0.88790000  1.0
  H  H49  1  0.42460000  0.07740000  0.84310000  1.0
  H  H50  1  0.71950000  0.95260000  0.83480000  1.0
  H  H51  1  0.82570000  0.91480000  0.89360000  1.0
  H  H52  1  0.83400000  0.94390000  0.64360000  1.0
  H  H53  1  0.99450000  0.93040000  0.86100000  1.0
  H  H54  1  0.09310000  0.33280000  0.58020000  1.0
  H  H55  1  0.10800000  0.26170000  0.55360000  1.0
  H  H56  1  0.99370000  0.25540000  0.76600000  1.0
  H  H57  1  0.96470000  0.18710000  0.57280000  1.0
  H  H58  1  0.19030000  0.17680000  0.58340000  1.0
  H  H59  1  0.31030000  0.14340000  0.61800000  1.0
  H  H60  1  0.18350000  0.11210000  0.81770000  1.0
  H  H61  1  0.17160000  0.04220000  0.63120000  1.0
  H  H62  1  0.53870000  0.17150000  0.79110000  1.0
  H  H63  1  0.44020000  0.13490000  0.72440000  1.0
  H  H64  1  0.60660000  0.16020000  0.56080000  1.0
  H  H65  1  0.71980000  0.14180000  0.77720000  1.0
  H  H66  1  0.61470000  0.32290000  0.84180000  1.0
  H  H67  1  0.63110000  0.25390000  0.81140000  1.0
  H  H68  1  0.74090000  0.34770000  0.63760000  1.0
  H  H69  1  0.76210000  0.39870000  0.83330000  1.0
  H  H70  1  0.41830000  0.44460000  0.77390000  1.0
  H  H71  1  0.53810000  0.41100000  0.80460000  1.0
  H  H72  1  0.45170000  0.40150000  0.61210000  1.0
  H  H73  1  0.57540000  0.57740000  0.65690000  1.0
  H  H74  1  0.28050000  0.45260000  0.66520000  1.0
  H  H75  1  0.17430000  0.41480000  0.60640000  1.0
  H  H76  1  0.16600000  0.44390000  0.85640000  1.0
  H  H77  1  0.00550000  0.43040000  0.63900000  1.0
  H  H78  1  0.09310000  0.16720000  0.08020000  1.0
  H  H79  1  0.10800000  0.23830000  0.05360000  1.0
  H  H80  1  0.99370000  0.24460000  0.26600000  1.0
  H  H81  1  0.96470000  0.31290000  0.07280000  1.0
  H  H82  1  0.19030000  0.32320000  0.08340000  1.0
  H  H83  1  0.31030000  0.35660000  0.11800000  1.0
  H  H84  1  0.18350000  0.38790000  0.31770000  1.0
  H  H85  1  0.17160000  0.45780000  0.13120000  1.0
  H  H86  1  0.53870000  0.32850000  0.29110000  1.0
  H  H87  1  0.44020000  0.36510000  0.22440000  1.0
  H  H88  1  0.60660000  0.33980000  0.06080000  1.0
  H  H89  1  0.71980000  0.35820000  0.27720000  1.0
  H  H90  1  0.61470000  0.17710000  0.34180000  1.0
  H  H91  1  0.63110000  0.24610000  0.31140000  1.0
  H  H92  1  0.74090000  0.15230000  0.13760000  1.0
  H  H93  1  0.76210000  0.10130000  0.33333333  1.0
  H  H94  1  0.41830000  0.05540000  0.27390000  1.0
  H  H95  1  0.53810000  0.08900000  0.30460000  1.0
  H  H96  1  0.45170000  0.09850000  0.11210000  1.0
  H  H97  1  0.57540000  0.92260000  0.15690000  1.0
  H  H98  1  0.28050000  0.04740000  0.16520000  1.0
  H  H99  1  0.17430000  0.08520000  0.10640000  1.0
  H  H100  1  0.16600000  0.05610000  0.35640000  1.0
  H  H101  1  0.00550000  0.06960000  0.13900000  1.0
  H  H102  1  0.90690000  0.66720000  0.41980000  1.0
  H  H103  1  0.89200000  0.73830000  0.44640000  1.0
  H  H104  1  0.00630000  0.74460000  0.23400000  1.0
  H  H105  1  0.03530000  0.81290000  0.42720000  1.0
  H  H106  1  0.80970000  0.82320000  0.41660000  1.0
  H  H107  1  0.68970000  0.85660000  0.38200000  1.0
  H  H108  1  0.81650000  0.88790000  0.18230000  1.0
  H  H109  1  0.82840000  0.95780000  0.36880000  1.0
  H  H110  1  0.46130000  0.82850000  0.20890000  1.0
  H  H111  1  0.55980000  0.86510000  0.27560000  1.0
  H  H112  1  0.39340000  0.83980000  0.43920000  1.0
  H  H113  1  0.28020000  0.85820000  0.22280000  1.0
  H  H114  1  0.38530000  0.67710000  0.15820000  1.0
  H  H115  1  0.36890000  0.74610000  0.18860000  1.0
  H  H116  1  0.25910000  0.65230000  0.36240000  1.0
  H  H117  1  0.23790000  0.60130000  0.16670000  1.0
  H  H118  1  0.58170000  0.55540000  0.22610000  1.0
  H  H119  1  0.46190000  0.58900000  0.19540000  1.0
  H  H120  1  0.54830000  0.59850000  0.38790000  1.0
  H  H121  1  0.42460000  0.42260000  0.34310000  1.0
  H  H122  1  0.71950000  0.54740000  0.33480000  1.0
  H  H123  1  0.82570000  0.58520000  0.39360000  1.0
  H  H124  1  0.83400000  0.55610000  0.14360000  1.0
  H  H125  1  0.99450000  0.56960000  0.36100000  1.0
  C  C126  1  0.75380000  0.79170000  0.85220000  1.0
  C  C127  1  0.68930000  0.73390000  0.83490000  1.0
  C  C128  1  0.57390000  0.73580000  0.78530000  1.0
  C  C129  1  0.52230000  0.79610000  0.75570000  1.0
  C  C130  1  0.58660000  0.85390000  0.77400000  1.0
  C  C131  1  0.70300000  0.85160000  0.82210000  1.0
  C  C132  1  0.87890000  0.78860000  0.90240000  1.0
  C  C133  1  0.99660000  0.74980000  0.77790000  1.0
  C  C134  1  0.01360000  0.71170000  0.88320000  1.0
  C  C135  1  0.74280000  0.66860000  0.86990000  1.0
  C  C136  1  0.80970000  0.60850000  0.72740000  1.0
  C  C137  1  0.81660000  0.56960000  0.82800000  1.0
  C  C138  1  0.50760000  0.67190000  0.76300000  1.0
  C  C139  1  0.39020000  0.65900000  0.89090000  1.0
  C  C140  1  0.32710000  0.64890000  0.77370000  1.0
  C  C141  1  0.39680000  0.79850000  0.70350000  1.0
  C  C142  1  0.27040000  0.84890000  0.81870000  1.0
  C  C143  1  0.25810000  0.87780000  0.71290000  1.0
  C  C144  1  0.53130000  0.91910000  0.74050000  1.0
  C  C145  1  0.51950000  0.94140000  0.86370000  1.0
  C  C146  1  0.45240000  0.03630000  0.83820000  1.0
  C  C147  1  0.77040000  0.91580000  0.84120000  1.0
  C  C148  1  0.84890000  0.93960000  0.69420000  1.0
  C  C149  1  0.93770000  0.93220000  0.81190000  1.0
  C  C150  1  0.24620000  0.29170000  0.64780000  1.0
  C  C151  1  0.31070000  0.23390000  0.66510000  1.0
  C  C152  1  0.42610000  0.23580000  0.71470000  1.0
  C  C153  1  0.47770000  0.29610000  0.74430000  1.0
  C  C154  1  0.41340000  0.35390000  0.72600000  1.0
  C  C155  1  0.29700000  0.35160000  0.67790000  1.0
  C  C156  1  0.12110000  0.28860000  0.59760000  1.0
  C  C157  1  0.00340000  0.24980000  0.72210000  1.0
  C  C158  1  0.98640000  0.21170000  0.61680000  1.0
  C  C159  1  0.25720000  0.16860000  0.63010000  1.0
  C  C160  1  0.19030000  0.10850000  0.77260000  1.0
  C  C161  1  0.18340000  0.06960000  0.67200000  1.0
  C  C162  1  0.49240000  0.17190000  0.73700000  1.0
  C  C163  1  0.60980000  0.15900000  0.60910000  1.0
  C  C164  1  0.67290000  0.14890000  0.72630000  1.0
  C  C165  1  0.60320000  0.29850000  0.79650000  1.0
  C  C166  1  0.72960000  0.34890000  0.68130000  1.0
  C  C167  1  0.74190000  0.37780000  0.78710000  1.0
  C  C168  1  0.46870000  0.41910000  0.75950000  1.0
  C  C169  1  0.48050000  0.44140000  0.63630000  1.0
  C  C170  1  0.54760000  0.53630000  0.66180000  1.0
  C  C171  1  0.22960000  0.41580000  0.65880000  1.0
  C  C172  1  0.15110000  0.43960000  0.80580000  1.0
  C  C173  1  0.06230000  0.43220000  0.68810000  1.0
  C  C174  1  0.24620000  0.20830000  0.14780000  1.0
  C  C175  1  0.31070000  0.26610000  0.16510000  1.0
  C  C176  1  0.42610000  0.26420000  0.21470000  1.0
  C  C177  1  0.47770000  0.20390000  0.24430000  1.0
  C  C178  1  0.41340000  0.14610000  0.22600000  1.0
  C  C179  1  0.29700000  0.14840000  0.17790000  1.0
  C  C180  1  0.12110000  0.21140000  0.09760000  1.0
  C  C181  1  0.00340000  0.25020000  0.22210000  1.0
  C  C182  1  0.98640000  0.28830000  0.11680000  1.0
  C  C183  1  0.25720000  0.33140000  0.13010000  1.0
  C  C184  1  0.19030000  0.39150000  0.27260000  1.0
  C  C185  1  0.18340000  0.43040000  0.17200000  1.0
  C  C186  1  0.49240000  0.32810000  0.23700000  1.0
  C  C187  1  0.60980000  0.34100000  0.10910000  1.0
  C  C188  1  0.67290000  0.35110000  0.22630000  1.0
  C  C189  1  0.60320000  0.20150000  0.29650000  1.0
  C  C190  1  0.72960000  0.15110000  0.18130000  1.0
  C  C191  1  0.74190000  0.12220000  0.28710000  1.0
  C  C192  1  0.46870000  0.08090000  0.25950000  1.0
  C  C193  1  0.48050000  0.05860000  0.13630000  1.0
  C  C194  1  0.54760000  0.96370000  0.16180000  1.0
  C  C195  1  0.22960000  0.08420000  0.15880000  1.0
  C  C196  1  0.15110000  0.06040000  0.30580000  1.0
  C  C197  1  0.06230000  0.06780000  0.18810000  1.0
  C  C198  1  0.75380000  0.70830000  0.35220000  1.0
  C  C199  1  0.68930000  0.76610000  0.33490000  1.0
  C  C200  1  0.57390000  0.76420000  0.28530000  1.0
  C  C201  1  0.52230000  0.70390000  0.25570000  1.0
  C  C202  1  0.58660000  0.64610000  0.27400000  1.0
  C  C203  1  0.70300000  0.64840000  0.32210000  1.0
  C  C204  1  0.87890000  0.71140000  0.40240000  1.0
  C  C205  1  0.99660000  0.75020000  0.27790000  1.0
  C  C206  1  0.01360000  0.78830000  0.38320000  1.0
  C  C207  1  0.74280000  0.83140000  0.36990000  1.0
  C  C208  1  0.80970000  0.89150000  0.22740000  1.0
  C  C209  1  0.81660000  0.93040000  0.32800000  1.0
  C  C210  1  0.50760000  0.82810000  0.26300000  1.0
  C  C211  1  0.39020000  0.84100000  0.39090000  1.0
  C  C212  1  0.32710000  0.85110000  0.27370000  1.0
  C  C213  1  0.39680000  0.70150000  0.20350000  1.0
  C  C214  1  0.27040000  0.65110000  0.31870000  1.0
  C  C215  1  0.25810000  0.62220000  0.21290000  1.0
  C  C216  1  0.53130000  0.58090000  0.24050000  1.0
  C  C217  1  0.51950000  0.55860000  0.36370000  1.0
  C  C218  1  0.45240000  0.46370000  0.33820000  1.0
  C  C219  1  0.77040000  0.58420000  0.34120000  1.0
  C  C220  1  0.84890000  0.56040000  0.19420000  1.0
  C  C221  1  0.93770000  0.56780000  0.31190000  1.0
  N  N222  1  0.94080000  0.76063000  0.86260000  1.0
  N  N223  1  0.92840000  0.78650000  0.79540000  1.0
  N  N224  1  0.05160000  0.70280000  0.83060000  1.0
  N  N225  1  0.77440000  0.63005000  0.81870000  1.0
  N  N226  1  0.77030000  0.65601000  0.75420000  1.0
  N  N227  1  0.83960000  0.55374000  0.77060000  1.0
  N  N228  1  0.43530000  0.66425000  0.80160000  1.0
  N  N229  1  0.47770000  0.67070000  0.87700000  1.0
  N  N230  1  0.29500000  0.64510000  0.82860000  1.0
  N  N231  1  0.33230000  0.82993000  0.73960000  1.0
  N  N232  1  0.34010000  0.80930000  0.80710000  1.0
  N  N233  1  0.21620000  0.89178000  0.76190000  1.0
  N  N234  1  0.50550000  0.95670000  0.79460000  1.0
  N  N235  1  0.46110000  0.01820000  0.77660000  1.0
  N  N236  1  0.48650000  0.99114000  0.89320000  1.0
  N  N237  1  0.82890000  0.92595000  0.79290000  1.0
  N  N238  1  0.76980000  0.93120000  0.71710000  1.0
  N  N239  1  0.95430000  0.94162000  0.75090000  1.0
  N  N240  1  0.05920000  0.26063000  0.63740000  1.0
  N  N241  1  0.07160000  0.28650000  0.70460000  1.0
  N  N242  1  0.94840000  0.20280000  0.66940000  1.0
  N  N243  1  0.22560000  0.13005000  0.68130000  1.0
  N  N244  1  0.22970000  0.15601000  0.74580000  1.0
  N  N245  1  0.16040000  0.05374000  0.72940000  1.0
  N  N246  1  0.56470000  0.16425000  0.69840000  1.0
  N  N247  1  0.52230000  0.17070000  0.62300000  1.0
  N  N248  1  0.70500000  0.14510000  0.67140000  1.0
  N  N249  1  0.66770000  0.32993000  0.76040000  1.0
  N  N250  1  0.65990000  0.30930000  0.69290000  1.0
  N  N251  1  0.78380000  0.39178000  0.73810000  1.0
  N  N252  1  0.49450000  0.45670000  0.70540000  1.0
  N  N253  1  0.53890000  0.51820000  0.72340000  1.0
  N  N254  1  0.51350000  0.49114000  0.60680000  1.0
  N  N255  1  0.17110000  0.42595000  0.70710000  1.0
  N  N256  1  0.23020000  0.43120000  0.78290000  1.0
  N  N257  1  0.04570000  0.44162000  0.74910000  1.0
  N  N258  1  0.05920000  0.23937000  0.13740000  1.0
  N  N259  1  0.07160000  0.21350000  0.20460000  1.0
  N  N260  1  0.94840000  0.29720000  0.16940000  1.0
  N  N261  1  0.22560000  0.36995000  0.18130000  1.0
  N  N262  1  0.22970000  0.34399000  0.24580000  1.0
  N  N263  1  0.16040000  0.44626000  0.22940000  1.0
  N  N264  1  0.56470000  0.33575000  0.19840000  1.0
  N  N265  1  0.52230000  0.32930000  0.12300000  1.0
  N  N266  1  0.70500000  0.35490000  0.17140000  1.0
  N  N267  1  0.66770000  0.17007000  0.26040000  1.0
  N  N268  1  0.65990000  0.19070000  0.19290000  1.0
  N  N269  1  0.78380000  0.10822000  0.23810000  1.0
  N  N270  1  0.49450000  0.04330000  0.20540000  1.0
  N  N271  1  0.53890000  0.98180000  0.22340000  1.0
  N  N272  1  0.51350000  0.00886000  0.10680000  1.0
  N  N273  1  0.17110000  0.07405000  0.20710000  1.0
  N  N274  1  0.23020000  0.06880000  0.28290000  1.0
  N  N275  1  0.04570000  0.05838000  0.24910000  1.0
  N  N276  1  0.94080000  0.73937000  0.36260000  1.0
  N  N277  1  0.92840000  0.71350000  0.29540000  1.0
  N  N278  1  0.05160000  0.79720000  0.33060000  1.0
  N  N279  1  0.77440000  0.86995000  0.31870000  1.0
  N  N280  1  0.77030000  0.84399000  0.25420000  1.0
  N  N281  1  0.83960000  0.94626000  0.27060000  1.0
  N  N282  1  0.43530000  0.83575000  0.30160000  1.0
  N  N283  1  0.47770000  0.82930000  0.37700000  1.0
  N  N284  1  0.29500000  0.85490000  0.32860000  1.0
  N  N285  1  0.33230000  0.67007000  0.23960000  1.0
  N  N286  1  0.34010000  0.69070000  0.30710000  1.0
  N  N287  1  0.21620000  0.60822000  0.26190000  1.0
  N  N288  1  0.50550000  0.54330000  0.29460000  1.0
  N  N289  1  0.46110000  0.48180000  0.27660000  1.0
  N  N290  1  0.48650000  0.50886000  0.39320000  1.0
  N  N291  1  0.82890000  0.57405000  0.29290000  1.0
  N  N292  1  0.76980000  0.56880000  0.21710000  1.0
  N  N293  1  0.95430000  0.55838000  0.25090000  1.0
  O  O294  1  0.16690000  0.57331000  0.91100000  1.0
  O  O295  1  0.04190000  0.58775000  0.99430000  1.0
  O  O296  1  0.15980000  0.46420000  0.00060000  1.0
  O  O297  1  0.96300000  0.44850000  0.86873000  1.0
  O  O298  1  0.83140000  0.48220000  0.63437000  1.0
  O  O299  1  0.65610000  0.55297000  0.54060000  1.0
  O  O300  1  0.87530000  0.60067000  0.57980000  1.0
  O  O301  1  0.05410000  0.58798000  0.72780000  1.0
  O  O302  1  0.11040000  0.56820000  0.60850000  1.0
  O  O303  1  0.21840000  0.51170000  0.51990000  1.0
  O  O304  1  0.83310000  0.07331000  0.58900000  1.0
  O  O305  1  0.95810000  0.08775000  0.50570000  1.0
  O  O306  1  0.84020000  0.96420000  0.49940000  1.0
  O  O307  1  0.03700000  0.94850000  0.63127000  1.0
  O  O308  1  0.16860000  0.98220000  0.86563000  1.0
  O  O309  1  0.34390000  0.05297000  0.95940000  1.0
  O  O310  1  0.12470000  0.10067000  0.92020000  1.0
  O  O311  1  0.94590000  0.08798000  0.77220000  1.0
  O  O312  1  0.88960000  0.06820000  0.89150000  1.0
  O  O313  1  0.78160000  0.01170000  0.98010000  1.0
  O  O314  1  0.83310000  0.42669000  0.08900000  1.0
  O  O315  1  0.95810000  0.41225000  0.00570000  1.0
  O  O316  1  0.84020000  0.53580000  0.99940000  1.0
  O  O317  1  0.03700000  0.55150000  0.13127000  1.0
  O  O318  1  0.16860000  0.51780000  0.36563000  1.0
  O  O319  1  0.34390000  0.44703000  0.45940000  1.0
  O  O320  1  0.12470000  0.39933000  0.42020000  1.0
  O  O321  1  0.94590000  0.41202000  0.27220000  1.0
  O  O322  1  0.88960000  0.43180000  0.39150000  1.0
  O  O323  1  0.78160000  0.48830000  0.48010000  1.0
  O  O324  1  0.16690000  0.92669000  0.41100000  1.0
  O  O325  1  0.04190000  0.91225000  0.49430000  1.0
  O  O326  1  0.15980000  0.03580000  0.50060000  1.0
  O  O327  1  0.96300000  0.05150000  0.36873000  1.0
  O  O328  1  0.83140000  0.01780000  0.13437000  1.0
  O  O329  1  0.65610000  0.94703000  0.04060000  1.0
  O  O330  1  0.87530000  0.89933000  0.07980000  1.0
  O  O331  1  0.05410000  0.91202000  0.22780000  1.0
  O  O332  1  0.11040000  0.93180000  0.10850000  1.0
  O  O333  1  0.21840000  0.98830000  0.01990000  1.0
