# generated using pymatgen
data_AgH8(C2N)4
_symmetry_space_group_name_H-M   'P 1'
_cell_length_a   15.07800000
_cell_length_b   15.07800000
_cell_length_c   5.70000000
_cell_angle_alpha   90.00000000
_cell_angle_beta   90.00000000
_cell_angle_gamma   90.00000000
_symmetry_Int_Tables_number   1
_chemical_formula_structural   AgH8(C2N)4
_chemical_formula_sum   'Ag4 H32 C32 N16'
_cell_volume   1295.87267880
_cell_formula_units_Z   4
loop_
 _symmetry_equiv_pos_site_id
 _symmetry_equiv_pos_as_xyz
  1  'x, y, z'
loop_
 _atom_site_type_symbol
 _atom_site_label
 _atom_site_symmetry_multiplicity
 _atom_site_fract_x
 _atom_site_fract_y
 _atom_site_fract_z
 _atom_site_occupancy
  Ag  Ag0  1  0.00000000  0.25000000  0.87500000  1.0
  Ag  Ag1  1  0.50000000  0.75000000  0.37500000  1.0
  Ag  Ag2  1  0.00000000  0.75000000  0.12500000  1.0
  Ag  Ag3  1  0.50000000  0.25000000  0.62500000  1.0
  H  H4  1  0.70220000  0.30240000  0.41650000  1.0
  H  H5  1  0.20220000  0.80240000  0.91650000  1.0
  H  H6  1  0.79780000  0.69760000  0.91650000  1.0
  H  H7  1  0.29780000  0.19760000  0.41650000  1.0
  H  H8  1  0.94760000  0.45220000  0.66650000  1.0
  H  H9  1  0.44760000  0.95220000  0.16650000  1.0
  H  H10  1  0.55240000  0.54780000  0.16650000  1.0
  H  H11  1  0.05240000  0.04780000  0.66650000  1.0
  H  H12  1  0.79780000  0.30240000  0.08350000  1.0
  H  H13  1  0.29780000  0.80240000  0.58350000  1.0
  H  H14  1  0.70220000  0.69760000  0.58350000  1.0
  H  H15  1  0.20220000  0.19760000  0.08350000  1.0
  H  H16  1  0.55240000  0.45220000  0.83350000  1.0
  H  H17  1  0.05240000  0.95220000  0.33350000  1.0
  H  H18  1  0.94760000  0.54780000  0.33350000  1.0
  H  H19  1  0.44760000  0.04780000  0.83350000  1.0
  H  H20  1  0.29780000  0.69760000  0.58350000  1.0
  H  H21  1  0.79780000  0.19760000  0.08350000  1.0
  H  H22  1  0.20220000  0.30240000  0.08350000  1.0
  H  H23  1  0.70220000  0.80240000  0.58350000  1.0
  H  H24  1  0.05240000  0.54780000  0.33350000  1.0
  H  H25  1  0.55240000  0.04780000  0.83350000  1.0
  H  H26  1  0.44760000  0.45220000  0.83350000  1.0
  H  H27  1  0.94760000  0.95220000  0.33350000  1.0
  H  H28  1  0.20220000  0.69760000  0.91650000  1.0
  H  H29  1  0.70220000  0.19760000  0.41650000  1.0
  H  H30  1  0.29780000  0.30240000  0.41650000  1.0
  H  H31  1  0.79780000  0.80240000  0.91650000  1.0
  H  H32  1  0.44760000  0.54780000  0.16650000  1.0
  H  H33  1  0.94760000  0.04780000  0.66650000  1.0
  H  H34  1  0.05240000  0.45220000  0.66650000  1.0
  H  H35  1  0.55240000  0.95220000  0.16650000  1.0
  C  C36  1  0.82300000  0.25000000  0.50000000  1.0
  C  C37  1  0.73700000  0.25000000  0.37800000  1.0
  C  C38  1  0.67700000  0.75000000  0.00000000  1.0
  C  C39  1  0.76300000  0.75000000  0.87800000  1.0
  C  C40  1  0.00000000  0.57300000  0.75000000  1.0
  C  C41  1  0.00000000  0.48700000  0.62800000  1.0
  C  C42  1  0.50000000  0.07300000  0.25000000  1.0
  C  C43  1  0.50000000  0.98700000  0.12800000  1.0
  C  C44  1  0.50000000  0.42700000  0.25000000  1.0
  C  C45  1  0.50000000  0.51300000  0.12800000  1.0
  C  C46  1  0.00000000  0.92700000  0.75000000  1.0
  C  C47  1  0.00000000  0.01300000  0.62800000  1.0
  C  C48  1  0.67700000  0.25000000  0.00000000  1.0
  C  C49  1  0.76300000  0.25000000  0.12200000  1.0
  C  C50  1  0.82300000  0.75000000  0.50000000  1.0
  C  C51  1  0.73700000  0.75000000  0.62200000  1.0
  C  C52  1  0.32300000  0.25000000  0.00000000  1.0
  C  C53  1  0.23700000  0.25000000  0.12200000  1.0
  C  C54  1  0.50000000  0.57300000  0.75000000  1.0
  C  C55  1  0.50000000  0.48700000  0.87200000  1.0
  C  C56  1  0.00000000  0.07300000  0.25000000  1.0
  C  C57  1  0.00000000  0.98700000  0.37200000  1.0
  C  C58  1  0.00000000  0.42700000  0.25000000  1.0
  C  C59  1  0.00000000  0.51300000  0.37200000  1.0
  C  C60  1  0.50000000  0.92700000  0.75000000  1.0
  C  C61  1  0.50000000  0.01300000  0.87200000  1.0
  C  C62  1  0.17700000  0.75000000  0.50000000  1.0
  C  C63  1  0.26300000  0.75000000  0.62200000  1.0
  C  C64  1  0.32300000  0.75000000  0.00000000  1.0
  C  C65  1  0.23700000  0.75000000  0.87800000  1.0
  C  C66  1  0.17700000  0.25000000  0.50000000  1.0
  C  C67  1  0.26300000  0.25000000  0.37800000  1.0
  N  N68  1  0.88300000  0.25000000  0.62800000  1.0
  N  N69  1  0.61700000  0.75000000  0.12800000  1.0
  N  N70  1  0.00000000  0.63300000  0.87800000  1.0
  N  N71  1  0.50000000  0.13300000  0.37800000  1.0
  N  N72  1  0.50000000  0.36700000  0.37800000  1.0
  N  N73  1  0.00000000  0.86700000  0.87800000  1.0
  N  N74  1  0.61700000  0.25000000  0.87200000  1.0
  N  N75  1  0.88300000  0.75000000  0.37200000  1.0
  N  N76  1  0.38300000  0.25000000  0.87200000  1.0
  N  N77  1  0.50000000  0.63300000  0.62200000  1.0
  N  N78  1  0.00000000  0.13300000  0.12200000  1.0
  N  N79  1  0.00000000  0.36700000  0.12200000  1.0
  N  N80  1  0.50000000  0.86700000  0.62200000  1.0
  N  N81  1  0.11700000  0.75000000  0.37200000  1.0
  N  N82  1  0.38300000  0.75000000  0.12800000  1.0
  N  N83  1  0.11700000  0.25000000  0.62800000  1.0
