# generated using pymatgen
data_Zn3H14C14(N2O3)3
_symmetry_space_group_name_H-M   'P 1'
_cell_length_a   11.69000000
_cell_length_b   14.17300000
_cell_length_c   17.99800000
_cell_angle_alpha   90.00000000
_cell_angle_beta   90.00000000
_cell_angle_gamma   111.01300000
_symmetry_Int_Tables_number   1
_chemical_formula_structural   Zn3H14C14(N2O3)3
_chemical_formula_sum   'Zn12 H56 C56 N24 O36'
_cell_volume   2783.64882460
_cell_formula_units_Z   4
loop_
 _symmetry_equiv_pos_site_id
 _symmetry_equiv_pos_as_xyz
  1  'x, y, z'
loop_
 _atom_site_type_symbol
 _atom_site_label
 _atom_site_symmetry_multiplicity
 _atom_site_fract_x
 _atom_site_fract_y
 _atom_site_fract_z
 _atom_site_occupancy
  Zn  Zn0  1  0.93659000  0.11334000  0.16658000  1.0
  Zn  Zn1  1  0.84906000  0.86125000  0.14486000  1.0
  Zn  Zn2  1  0.87185000  0.39412000  0.40581000  1.0
  Zn  Zn3  1  0.56341000  0.38666000  0.66658000  1.0
  Zn  Zn4  1  0.65094000  0.63875000  0.64486000  1.0
  Zn  Zn5  1  0.62815000  0.10588000  0.90581000  1.0
  Zn  Zn6  1  0.06341000  0.88666000  0.83342000  1.0
  Zn  Zn7  1  0.15094000  0.13875000  0.85514000  1.0
  Zn  Zn8  1  0.12815000  0.60588000  0.59419000  1.0
  Zn  Zn9  1  0.43659000  0.61334000  0.33342000  1.0
  Zn  Zn10  1  0.34906000  0.36125000  0.35514000  1.0
  Zn  Zn11  1  0.37185000  0.89412000  0.09419000  1.0
  H  H12  1  0.91250000  0.98400000  0.24510000  1.0
  H  H13  1  0.80350000  0.25310000  0.25220000  1.0
  H  H14  1  0.99120000  0.57540000  0.42440000  1.0
  H  H15  1  0.80170000  0.57520000  0.44450000  1.0
  H  H16  1  0.77620000  0.56180000  0.35900000  1.0
  H  H17  1  0.14170000  0.11870000  0.03810000  1.0
  H  H18  1  0.93950000  0.54770000  0.27600000  1.0
  H  H19  1  0.06390000  0.55330000  0.31190000  1.0
  H  H20  1  0.81920000  0.72800000  0.38980000  1.0
  H  H21  1  0.94400000  0.73470000  0.42610000  1.0
  H  H22  1  0.11050000  0.72200000  0.34190000  1.0
  H  H23  1  0.08200000  0.70800000  0.25640000  1.0
  H  H24  1  0.97900000  0.79970000  0.31120000  1.0
  H  H25  1  0.89230000  0.70820000  0.27820000  1.0
  H  H26  1  0.58750000  0.51600000  0.74510000  1.0
  H  H27  1  0.69650000  0.24690000  0.75220000  1.0
  H  H28  1  0.50880000  0.92460000  0.92440000  1.0
  H  H29  1  0.69830000  0.92480000  0.94450000  1.0
  H  H30  1  0.72380000  0.93820000  0.85900000  1.0
  H  H31  1  0.35830000  0.38130000  0.53810000  1.0
  H  H32  1  0.56050000  0.95230000  0.77600000  1.0
  H  H33  1  0.43610000  0.94670000  0.81190000  1.0
  H  H34  1  0.68080000  0.77200000  0.88980000  1.0
  H  H35  1  0.55600000  0.76530000  0.92610000  1.0
  H  H36  1  0.38950000  0.77800000  0.84190000  1.0
  H  H37  1  0.41800000  0.79200000  0.75640000  1.0
  H  H38  1  0.52100000  0.70030000  0.81120000  1.0
  H  H39  1  0.60770000  0.79180000  0.77820000  1.0
  H  H40  1  0.08750000  0.01600000  0.75490000  1.0
  H  H41  1  0.19650000  0.74690000  0.74780000  1.0
  H  H42  1  0.00880000  0.42460000  0.57560000  1.0
  H  H43  1  0.19830000  0.42480000  0.55550000  1.0
  H  H44  1  0.22380000  0.43820000  0.64100000  1.0
  H  H45  1  0.85830000  0.88130000  0.96190000  1.0
  H  H46  1  0.06050000  0.45230000  0.72400000  1.0
  H  H47  1  0.93610000  0.44670000  0.68810000  1.0
  H  H48  1  0.18080000  0.27200000  0.61020000  1.0
  H  H49  1  0.05600000  0.26530000  0.57390000  1.0
  H  H50  1  0.88950000  0.27800000  0.65810000  1.0
  H  H51  1  0.91800000  0.29200000  0.74360000  1.0
  H  H52  1  0.02100000  0.20030000  0.68880000  1.0
  H  H53  1  0.10770000  0.29180000  0.72180000  1.0
  H  H54  1  0.41250000  0.48400000  0.25490000  1.0
  H  H55  1  0.30350000  0.75310000  0.24780000  1.0
  H  H56  1  0.49120000  0.07540000  0.07560000  1.0
  H  H57  1  0.30170000  0.07520000  0.05550000  1.0
  H  H58  1  0.27620000  0.06180000  0.14100000  1.0
  H  H59  1  0.64170000  0.61870000  0.46190000  1.0
  H  H60  1  0.43950000  0.04770000  0.22400000  1.0
  H  H61  1  0.56390000  0.05330000  0.18810000  1.0
  H  H62  1  0.31920000  0.22800000  0.11020000  1.0
  H  H63  1  0.44400000  0.23470000  0.07390000  1.0
  H  H64  1  0.61050000  0.22200000  0.15810000  1.0
  H  H65  1  0.58200000  0.20800000  0.24360000  1.0
  H  H66  1  0.47900000  0.29970000  0.18880000  1.0
  H  H67  1  0.39230000  0.20820000  0.22180000  1.0
  C  C68  1  0.05740000  0.24900000  0.28530000  1.0
  C  C69  1  0.88000000  0.26070000  0.27160000  1.0
  C  C70  1  0.10470000  0.36090000  0.40840000  1.0
  C  C71  1  0.03820000  0.30970000  0.34140000  1.0
  C  C72  1  0.89750000  0.14440000  0.86380000  1.0
  C  C73  1  0.93710000  0.13470000  0.94110000  1.0
  C  C74  1  0.83930000  0.59180000  0.39590000  1.0
  C  C75  1  0.15430000  0.21090000  0.26130000  1.0
  C  C76  1  0.06990000  0.12280000  0.01860000  1.0
  C  C77  1  0.99700000  0.57830000  0.31570000  1.0
  C  C78  1  0.88660000  0.70350000  0.38650000  1.0
  C  C79  1  0.04650000  0.69140000  0.30560000  1.0
  C  C80  1  0.77590000  0.13510000  0.04620000  1.0
  C  C81  1  0.88920000  0.12880000  0.01180000  1.0
  C  C82  1  0.44260000  0.25100000  0.78530000  1.0
  C  C83  1  0.62000000  0.23930000  0.77160000  1.0
  C  C84  1  0.39530000  0.13910000  0.90840000  1.0
  C  C85  1  0.46180000  0.19030000  0.84140000  1.0
  C  C86  1  0.60250000  0.35560000  0.36380000  1.0
  C  C87  1  0.56290000  0.36530000  0.44110000  1.0
  C  C88  1  0.66070000  0.90820000  0.89590000  1.0
  C  C89  1  0.34570000  0.28910000  0.76130000  1.0
  C  C90  1  0.43010000  0.37720000  0.51860000  1.0
  C  C91  1  0.50300000  0.92170000  0.81570000  1.0
  C  C92  1  0.61340000  0.79650000  0.88650000  1.0
  C  C93  1  0.45350000  0.80860000  0.80560000  1.0
  C  C94  1  0.72410000  0.36490000  0.54620000  1.0
  C  C95  1  0.61080000  0.37120000  0.51180000  1.0
  C  C96  1  0.94260000  0.75100000  0.71470000  1.0
  C  C97  1  0.12000000  0.73930000  0.72840000  1.0
  C  C98  1  0.89530000  0.63910000  0.59160000  1.0
  C  C99  1  0.96180000  0.69030000  0.65860000  1.0
  C  C100  1  0.10250000  0.85560000  0.13620000  1.0
  C  C101  1  0.06290000  0.86530000  0.05890000  1.0
  C  C102  1  0.16070000  0.40820000  0.60410000  1.0
  C  C103  1  0.84570000  0.78910000  0.73870000  1.0
  C  C104  1  0.93010000  0.87720000  0.98140000  1.0
  C  C105  1  0.00300000  0.42170000  0.68430000  1.0
  C  C106  1  0.11340000  0.29650000  0.61350000  1.0
  C  C107  1  0.95350000  0.30860000  0.69440000  1.0
  C  C108  1  0.22410000  0.86490000  0.95380000  1.0
  C  C109  1  0.11080000  0.87120000  0.98820000  1.0
  C  C110  1  0.55740000  0.74900000  0.21470000  1.0
  C  C111  1  0.38000000  0.76070000  0.22840000  1.0
  C  C112  1  0.60470000  0.86090000  0.09160000  1.0
  C  C113  1  0.53820000  0.80970000  0.15860000  1.0
  C  C114  1  0.39750000  0.64440000  0.63620000  1.0
  C  C115  1  0.43710000  0.63470000  0.55890000  1.0
  C  C116  1  0.33930000  0.09180000  0.10410000  1.0
  C  C117  1  0.65430000  0.71090000  0.23870000  1.0
  C  C118  1  0.56990000  0.62280000  0.48140000  1.0
  C  C119  1  0.49700000  0.07830000  0.18430000  1.0
  C  C120  1  0.38660000  0.20350000  0.11350000  1.0
  C  C121  1  0.54650000  0.19140000  0.19440000  1.0
  C  C122  1  0.27590000  0.63510000  0.45380000  1.0
  C  C123  1  0.38920000  0.62880000  0.48820000  1.0
  N  N124  1  0.95430000  0.21810000  0.24150000  1.0
  N  N125  1  0.05150000  0.13070000  0.94690000  1.0
  N  N126  1  0.92580000  0.31470000  0.33180000  1.0
  N  N127  1  0.93430000  0.54690000  0.38860000  1.0
  N  N128  1  0.94760000  0.73190000  0.31480000  1.0
  N  N129  1  0.97510000  0.12130000  0.05980000  1.0
  N  N130  1  0.54570000  0.28190000  0.74150000  1.0
  N  N131  1  0.44850000  0.36930000  0.44690000  1.0
  N  N132  1  0.57420000  0.18530000  0.83180000  1.0
  N  N133  1  0.56570000  0.95310000  0.88860000  1.0
  N  N134  1  0.55240000  0.76810000  0.81480000  1.0
  N  N135  1  0.52490000  0.37870000  0.55980000  1.0
  N  N136  1  0.04570000  0.78190000  0.75850000  1.0
  N  N137  1  0.94850000  0.86930000  0.05310000  1.0
  N  N138  1  0.07420000  0.68530000  0.66820000  1.0
  N  N139  1  0.06570000  0.45310000  0.61140000  1.0
  N  N140  1  0.05240000  0.26810000  0.68520000  1.0
  N  N141  1  0.02490000  0.87870000  0.94020000  1.0
  N  N142  1  0.45430000  0.71810000  0.25850000  1.0
  N  N143  1  0.55150000  0.63070000  0.55310000  1.0
  N  N144  1  0.42580000  0.81470000  0.16820000  1.0
  N  N145  1  0.43430000  0.04690000  0.11140000  1.0
  N  N146  1  0.44760000  0.23190000  0.18520000  1.0
  N  N147  1  0.47510000  0.62130000  0.44020000  1.0
  O  O148  1  0.86760000  0.97780000  0.20650000  1.0
  O  O149  1  0.12910000  0.15010000  0.20880000  1.0
  O  O150  1  0.20740000  0.35690000  0.42340000  1.0
  O  O151  1  0.04860000  0.40070000  0.44910000  1.0
  O  O152  1  0.69080000  0.14320000  0.00720000  1.0
  O  O153  1  0.25910000  0.24080000  0.29350000  1.0
  O  O154  1  0.79200000  0.14170000  0.84950000  1.0
  O  O155  1  0.97660000  0.15340000  0.81380000  1.0
  O  O156  1  0.77270000  0.13150000  0.11470000  1.0
  O  O157  1  0.63240000  0.52220000  0.70650000  1.0
  O  O158  1  0.37090000  0.34990000  0.70880000  1.0
  O  O159  1  0.29260000  0.14310000  0.92340000  1.0
  O  O160  1  0.45140000  0.09930000  0.94910000  1.0
  O  O161  1  0.80920000  0.35680000  0.50720000  1.0
  O  O162  1  0.24090000  0.25920000  0.79350000  1.0
  O  O163  1  0.70800000  0.35830000  0.34950000  1.0
  O  O164  1  0.52340000  0.34660000  0.31380000  1.0
  O  O165  1  0.72730000  0.36850000  0.61470000  1.0
  O  O166  1  0.13240000  0.02220000  0.79350000  1.0
  O  O167  1  0.87090000  0.84990000  0.79120000  1.0
  O  O168  1  0.79260000  0.64310000  0.57660000  1.0
  O  O169  1  0.95140000  0.59930000  0.55090000  1.0
  O  O170  1  0.30920000  0.85680000  0.99280000  1.0
  O  O171  1  0.74090000  0.75920000  0.70650000  1.0
  O  O172  1  0.20800000  0.85830000  0.15050000  1.0
  O  O173  1  0.02340000  0.84660000  0.18620000  1.0
  O  O174  1  0.22730000  0.86850000  0.88530000  1.0
  O  O175  1  0.36760000  0.47780000  0.29350000  1.0
  O  O176  1  0.62910000  0.65010000  0.29120000  1.0
  O  O177  1  0.70740000  0.85690000  0.07660000  1.0
  O  O178  1  0.54860000  0.90070000  0.05090000  1.0
  O  O179  1  0.19080000  0.64320000  0.49280000  1.0
  O  O180  1  0.75910000  0.74080000  0.20650000  1.0
  O  O181  1  0.29200000  0.64170000  0.65050000  1.0
  O  O182  1  0.47660000  0.65340000  0.68620000  1.0
  O  O183  1  0.27270000  0.63150000  0.38530000  1.0
