# generated using pymatgen
data_AgH6C3N2
_symmetry_space_group_name_H-M   'P 1'
_cell_length_a   10.31000000
_cell_length_b   20.00200000
_cell_length_c   22.95000000
_cell_angle_alpha   90.00000000
_cell_angle_beta   90.00000000
_cell_angle_gamma   90.49000000
_symmetry_Int_Tables_number   1
_chemical_formula_structural   AgH6C3N2
_chemical_formula_sum   'Ag24 H144 C72 N48'
_cell_volume   4732.59015612
_cell_formula_units_Z   24
loop_
 _symmetry_equiv_pos_site_id
 _symmetry_equiv_pos_as_xyz
  1  'x, y, z'
loop_
 _atom_site_type_symbol
 _atom_site_label
 _atom_site_symmetry_multiplicity
 _atom_site_fract_x
 _atom_site_fract_y
 _atom_site_fract_z
 _atom_site_occupancy
  Ag  Ag0  1  0.47806000  0.33983000  0.33136000  1.0
  Ag  Ag1  1  0.90383000  0.88409000  0.24219000  1.0
  Ag  Ag2  1  0.90146000  0.93443000  0.51079000  1.0
  Ag  Ag3  1  0.90807000  0.42581000  0.88205000  1.0
  Ag  Ag4  1  0.52310000  0.16854000  0.56374000  1.0
  Ag  Ag5  1  0.00548000  0.33177000  0.55334000  1.0
  Ag  Ag6  1  0.40377000  0.95257000  0.37278000  1.0
  Ag  Ag7  1  0.41091000  0.87592000  0.64860000  1.0
  Ag  Ag8  1  0.08777000  0.62151000  0.65288000  1.0
  Ag  Ag9  1  0.60366000  0.55726000  0.51496000  1.0
  Ag  Ag10  1  0.39734000  0.38329000  0.74740000  1.0
  Ag  Ag11  1  0.97656000  0.17338000  0.34909000  1.0
  Ag  Ag12  1  0.52194000  0.66017000  0.83136000  1.0
  Ag  Ag13  1  0.09617000  0.11591000  0.74219000  1.0
  Ag  Ag14  1  0.09854000  0.06557000  0.01079000  1.0
  Ag  Ag15  1  0.09193000  0.57419000  0.38205000  1.0
  Ag  Ag16  1  0.47690000  0.83146000  0.06374000  1.0
  Ag  Ag17  1  0.99452000  0.66823000  0.05334000  1.0
  Ag  Ag18  1  0.59623000  0.04743000  0.87278000  1.0
  Ag  Ag19  1  0.58909000  0.12408000  0.14860000  1.0
  Ag  Ag20  1  0.91223000  0.37849000  0.15288000  1.0
  Ag  Ag21  1  0.39634000  0.44274000  0.01496000  1.0
  Ag  Ag22  1  0.60266000  0.61671000  0.24740000  1.0
  Ag  Ag23  1  0.02344000  0.82662000  0.84909000  1.0
  H  H24  1  0.49560000  0.06520000  0.45620000  1.0
  H  H25  1  0.36880000  0.04690000  0.48970000  1.0
  H  H26  1  0.37420000  0.01820000  0.58820000  1.0
  H  H27  1  0.50220000  0.01990000  0.62400000  1.0
  H  H28  1  0.70810000  0.04600000  0.57000000  1.0
  H  H29  1  0.69830000  0.06220000  0.50400000  1.0
  H  H30  1  0.62430000  0.90400000  0.45550000  1.0
  H  H31  1  0.64990000  0.97720000  0.43540000  1.0
  H  H32  1  0.66920000  0.93190000  0.60220000  1.0
  H  H33  1  0.63480000  0.87710000  0.55670000  1.0
  H  H34  1  0.42060000  0.87790000  0.50980000  1.0
  H  H35  1  0.32630000  0.93650000  0.52240000  1.0
  H  H36  1  0.05680000  0.62910000  0.51760000  1.0
  H  H37  1  0.16760000  0.57780000  0.52660000  1.0
  H  H38  1  0.85360000  0.53230000  0.43790000  1.0
  H  H39  1  0.87390000  0.60250000  0.46550000  1.0
  H  H40  1  0.80420000  0.43590000  0.50290000  1.0
  H  H41  1  0.80110000  0.44660000  0.57010000  1.0
  H  H42  1  0.14210000  0.46490000  0.48700000  1.0
  H  H43  1  0.01850000  0.44720000  0.45100000  1.0
  H  H44  1  0.82580000  0.55820000  0.60890000  1.0
  H  H45  1  0.85340000  0.61750000  0.56680000  1.0
  H  H46  1  0.12830000  0.48150000  0.59030000  1.0
  H  H47  1  0.99670000  0.47310000  0.62270000  1.0
  H  H48  1  0.06240000  0.69210000  0.77250000  1.0
  H  H49  1  0.02750000  0.74660000  0.72680000  1.0
  H  H50  1  0.31340000  0.72890000  0.64380000  1.0
  H  H51  1  0.18760000  0.77080000  0.64690000  1.0
  H  H52  1  0.15560000  0.84910000  0.72220000  1.0
  H  H53  1  0.26360000  0.86240000  0.76790000  1.0
  H  H54  1  0.25690000  0.62920000  0.76520000  1.0
  H  H55  1  0.35550000  0.64220000  0.71490000  1.0
  H  H56  1  0.31200000  0.77780000  0.84040000  1.0
  H  H57  1  0.23150000  0.71180000  0.84250000  1.0
  H  H58  1  0.46700000  0.79760000  0.76290000  1.0
  H  H59  1  0.48470000  0.74520000  0.71350000  1.0
  H  H60  1  0.56920000  0.62320000  0.38670000  1.0
  H  H61  1  0.66440000  0.56520000  0.37410000  1.0
  H  H62  1  0.60430000  0.45110000  0.40830000  1.0
  H  H63  1  0.47280000  0.44270000  0.44040000  1.0
  H  H64  1  0.32350000  0.57260000  0.29130000  1.0
  H  H65  1  0.36400000  0.62870000  0.33460000  1.0
  H  H66  1  0.36950000  0.60500000  0.43690000  1.0
  H  H67  1  0.33210000  0.53390000  0.45860000  1.0
  H  H68  1  0.60070000  0.47580000  0.30280000  1.0
  H  H69  1  0.46700000  0.48070000  0.27190000  1.0
  H  H70  1  0.27620000  0.44930000  0.39130000  1.0
  H  H71  1  0.27060000  0.46530000  0.32520000  1.0
  H  H72  1  0.35890000  0.15190000  0.67570000  1.0
  H  H73  1  0.25930000  0.13760000  0.62650000  1.0
  H  H74  1  0.45550000  0.30780000  0.62930000  1.0
  H  H75  1  0.47870000  0.25440000  0.67720000  1.0
  H  H76  1  0.31300000  0.23030000  0.74970000  1.0
  H  H77  1  0.18320000  0.26920000  0.74840000  1.0
  H  H78  1  0.15270000  0.35480000  0.67240000  1.0
  H  H79  1  0.26060000  0.36750000  0.62630000  1.0
  H  H80  1  0.22370000  0.21910000  0.55230000  1.0
  H  H81  1  0.30230000  0.28580000  0.55280000  1.0
  H  H82  1  0.05380000  0.19860000  0.62570000  1.0
  H  H83  1  0.03170000  0.25190000  0.67400000  1.0
  H  H84  1  0.88000000  0.03600000  0.40600000  1.0
  H  H85  1  0.02400000  0.06200000  0.44500000  1.0
  H  H86  1  0.17300000  0.97400000  0.28800000  1.0
  H  H87  1  0.13500000  0.90000000  0.32900000  1.0
  H  H88  1  0.16600000  0.98400000  0.45300000  1.0
  H  H89  1  0.15700000  0.90900000  0.42700000  1.0
  H  H90  1  0.18000000  0.07000000  0.39000000  1.0
  H  H91  1  0.21300000  0.06000000  0.32200000  1.0
  H  H92  1  0.02000000  0.04100000  0.26700000  1.0
  H  H93  1  0.88000000  0.03600000  0.30600000  1.0
  H  H94  1  0.93800000  0.87600000  0.37500000  1.0
  H  H95  1  0.84300000  0.92500000  0.36600000  1.0
  H  H96  1  0.50440000  0.93480000  0.95620000  1.0
  H  H97  1  0.63120000  0.95310000  0.98970000  1.0
  H  H98  1  0.62580000  0.98180000  0.08820000  1.0
  H  H99  1  0.49780000  0.98010000  0.12400000  1.0
  H  H100  1  0.29190000  0.95400000  0.07000000  1.0
  H  H101  1  0.30170000  0.93780000  0.00400000  1.0
  H  H102  1  0.37570000  0.09600000  0.95550000  1.0
  H  H103  1  0.35010000  0.02280000  0.93540000  1.0
  H  H104  1  0.33080000  0.06810000  0.10220000  1.0
  H  H105  1  0.36520000  0.12290000  0.05670000  1.0
  H  H106  1  0.57940000  0.12210000  0.00980000  1.0
  H  H107  1  0.67370000  0.06350000  0.02240000  1.0
  H  H108  1  0.94320000  0.37090000  0.01760000  1.0
  H  H109  1  0.83240000  0.42220000  0.02660000  1.0
  H  H110  1  0.14640000  0.46770000  0.93790000  1.0
  H  H111  1  0.12610000  0.39750000  0.96550000  1.0
  H  H112  1  0.19580000  0.56410000  0.00290000  1.0
  H  H113  1  0.19890000  0.55340000  0.07010000  1.0
  H  H114  1  0.85790000  0.53510000  0.98700000  1.0
  H  H115  1  0.98150000  0.55280000  0.95100000  1.0
  H  H116  1  0.17420000  0.44180000  0.10890000  1.0
  H  H117  1  0.14660000  0.38250000  0.06680000  1.0
  H  H118  1  0.87170000  0.51850000  0.09030000  1.0
  H  H119  1  0.00330000  0.52690000  0.12270000  1.0
  H  H120  1  0.93760000  0.30790000  0.27250000  1.0
  H  H121  1  0.97250000  0.25340000  0.22680000  1.0
  H  H122  1  0.68660000  0.27110000  0.14380000  1.0
  H  H123  1  0.81240000  0.22920000  0.14690000  1.0
  H  H124  1  0.84440000  0.15090000  0.22220000  1.0
  H  H125  1  0.73640000  0.13760000  0.26790000  1.0
  H  H126  1  0.74310000  0.37080000  0.26520000  1.0
  H  H127  1  0.64450000  0.35780000  0.21490000  1.0
  H  H128  1  0.68800000  0.22220000  0.34040000  1.0
  H  H129  1  0.76850000  0.28820000  0.34250000  1.0
  H  H130  1  0.53300000  0.20240000  0.26290000  1.0
  H  H131  1  0.51530000  0.25480000  0.21350000  1.0
  H  H132  1  0.43080000  0.37680000  0.88670000  1.0
  H  H133  1  0.33560000  0.43480000  0.87410000  1.0
  H  H134  1  0.39570000  0.54890000  0.90830000  1.0
  H  H135  1  0.52720000  0.55730000  0.94040000  1.0
  H  H136  1  0.67650000  0.42740000  0.79130000  1.0
  H  H137  1  0.63600000  0.37130000  0.83460000  1.0
  H  H138  1  0.63050000  0.39500000  0.93690000  1.0
  H  H139  1  0.66790000  0.46610000  0.95860000  1.0
  H  H140  1  0.39930000  0.52420000  0.80280000  1.0
  H  H141  1  0.53300000  0.51930000  0.77190000  1.0
  H  H142  1  0.72380000  0.55070000  0.89130000  1.0
  H  H143  1  0.72940000  0.53470000  0.82520000  1.0
  H  H144  1  0.64110000  0.84810000  0.17570000  1.0
  H  H145  1  0.74070000  0.86240000  0.12650000  1.0
  H  H146  1  0.54450000  0.69220000  0.12930000  1.0
  H  H147  1  0.52130000  0.74560000  0.17720000  1.0
  H  H148  1  0.68700000  0.76970000  0.24970000  1.0
  H  H149  1  0.81680000  0.73080000  0.24840000  1.0
  H  H150  1  0.84730000  0.64520000  0.17240000  1.0
  H  H151  1  0.73940000  0.63250000  0.12630000  1.0
  H  H152  1  0.77630000  0.78090000  0.05230000  1.0
  H  H153  1  0.69770000  0.71420000  0.05280000  1.0
  H  H154  1  0.94620000  0.80140000  0.12570000  1.0
  H  H155  1  0.96830000  0.74810000  0.17400000  1.0
  H  H156  1  0.12000000  0.96400000  0.90600000  1.0
  H  H157  1  0.97600000  0.93800000  0.94500000  1.0
  H  H158  1  0.82700000  0.02600000  0.78800000  1.0
  H  H159  1  0.86500000  0.10000000  0.82900000  1.0
  H  H160  1  0.83400000  0.01600000  0.95300000  1.0
  H  H161  1  0.84300000  0.09100000  0.92700000  1.0
  H  H162  1  0.82000000  0.93000000  0.89000000  1.0
  H  H163  1  0.78700000  0.94000000  0.82200000  1.0
  H  H164  1  0.98000000  0.95900000  0.76700000  1.0
  H  H165  1  0.12000000  0.96400000  0.80600000  1.0
  H  H166  1  0.06200000  0.12400000  0.87500000  1.0
  H  H167  1  0.15700000  0.07500000  0.86600000  1.0
  C  C168  1  0.45960000  0.03740000  0.48630000  1.0
  C  C169  1  0.46550000  0.00930000  0.58660000  1.0
  C  C170  1  0.66250000  0.03530000  0.53470000  1.0
  C  C171  1  0.61320000  0.95010000  0.46580000  1.0
  C  C172  1  0.62440000  0.92350000  0.56630000  1.0
  C  C173  1  0.41600000  0.92470000  0.51880000  1.0
  C  C174  1  0.07530000  0.58260000  0.52390000  1.0
  C  C175  1  0.88810000  0.55550000  0.47110000  1.0
  C  C176  1  0.84120000  0.46120000  0.53450000  1.0
  C  C177  1  0.05040000  0.47210000  0.48380000  1.0
  C  C178  1  0.86910000  0.57090000  0.57350000  1.0
  C  C179  1  0.03650000  0.48840000  0.58730000  1.0
  C  C180  1  0.09760000  0.72670000  0.74800000  1.0
  C  C181  1  0.25300000  0.74950000  0.66990000  1.0
  C  C182  1  0.22260000  0.82840000  0.74470000  1.0
  C  C183  1  0.29490000  0.66310000  0.74080000  1.0
  C  C184  1  0.26780000  0.74500000  0.81700000  1.0
  C  C185  1  0.42240000  0.76530000  0.73910000  1.0
  C  C186  1  0.57430000  0.57640000  0.37740000  1.0
  C  C187  1  0.51650000  0.46670000  0.40980000  1.0
  C  C188  1  0.36960000  0.58170000  0.32690000  1.0
  C  C189  1  0.37450000  0.55830000  0.42790000  1.0
  C  C190  1  0.51240000  0.48970000  0.30770000  1.0
  C  C191  1  0.31730000  0.47420000  0.36060000  1.0
  C  C192  1  0.29520000  0.17200000  0.65080000  1.0
  C  C193  1  0.41420000  0.27390000  0.65250000  1.0
  C  C194  1  0.24980000  0.25020000  0.72450000  1.0
  C  C195  1  0.21920000  0.33380000  0.64970000  1.0
  C  C196  1  0.26180000  0.25260000  0.57700000  1.0
  C  C197  1  0.09610000  0.23140000  0.64980000  1.0
  C  C198  1  0.96510000  0.03770000  0.41340000  1.0
  C  C199  1  0.12220000  0.93880000  0.31850000  1.0
  C  C200  1  0.12840000  0.95480000  0.42240000  1.0
  C  C201  1  0.15780000  0.04850000  0.35990000  1.0
  C  C202  1  0.96400000  0.02290000  0.30810000  1.0
  C  C203  1  0.92670000  0.92790000  0.37130000  1.0
  C  C204  1  0.54040000  0.96260000  0.98630000  1.0
  C  C205  1  0.53450000  0.99070000  0.08660000  1.0
  C  C206  1  0.33750000  0.96470000  0.03470000  1.0
  C  C207  1  0.38680000  0.04990000  0.96580000  1.0
  C  C208  1  0.37560000  0.07650000  0.06630000  1.0
  C  C209  1  0.58400000  0.07530000  0.01880000  1.0
  C  C210  1  0.92470000  0.41740000  0.02390000  1.0
  C  C211  1  0.11190000  0.44450000  0.97110000  1.0
  C  C212  1  0.15880000  0.53880000  0.03450000  1.0
  C  C213  1  0.94960000  0.52790000  0.98380000  1.0
  C  C214  1  0.13090000  0.42910000  0.07350000  1.0
  C  C215  1  0.96350000  0.51160000  0.08730000  1.0
  C  C216  1  0.90240000  0.27330000  0.24800000  1.0
  C  C217  1  0.74700000  0.25050000  0.16990000  1.0
  C  C218  1  0.77740000  0.17160000  0.24470000  1.0
  C  C219  1  0.70510000  0.33690000  0.24080000  1.0
  C  C220  1  0.73220000  0.25500000  0.31700000  1.0
  C  C221  1  0.57760000  0.23470000  0.23910000  1.0
  C  C222  1  0.42570000  0.42360000  0.87740000  1.0
  C  C223  1  0.48350000  0.53330000  0.90980000  1.0
  C  C224  1  0.63040000  0.41830000  0.82690000  1.0
  C  C225  1  0.62550000  0.44170000  0.92790000  1.0
  C  C226  1  0.48760000  0.51030000  0.80770000  1.0
  C  C227  1  0.68270000  0.52580000  0.86060000  1.0
  C  C228  1  0.70480000  0.82800000  0.15080000  1.0
  C  C229  1  0.58580000  0.72610000  0.15250000  1.0
  C  C230  1  0.75020000  0.74980000  0.22450000  1.0
  C  C231  1  0.78080000  0.66620000  0.14970000  1.0
  C  C232  1  0.73820000  0.74740000  0.07700000  1.0
  C  C233  1  0.90390000  0.76860000  0.14980000  1.0
  C  C234  1  0.03490000  0.96230000  0.91340000  1.0
  C  C235  1  0.87780000  0.06120000  0.81850000  1.0
  C  C236  1  0.87160000  0.04520000  0.92240000  1.0
  C  C237  1  0.84220000  0.95150000  0.85990000  1.0
  C  C238  1  0.03600000  0.97710000  0.80810000  1.0
  C  C239  1  0.07330000  0.07210000  0.87130000  1.0
  N  N240  1  0.52550000  0.05100000  0.54210000  1.0
  N  N241  1  0.68150000  0.96430000  0.52080000  1.0
  N  N242  1  0.47750000  0.96450000  0.47120000  1.0
  N  N243  1  0.48490000  0.93780000  0.57370000  1.0
  N  N244  1  0.02580000  0.54340000  0.47550000  1.0
  N  N245  1  0.81730000  0.53220000  0.52550000  1.0
  N  N246  1  0.98500000  0.44950000  0.53730000  1.0
  N  N247  1  0.01260000  0.55980000  0.57930000  1.0
  N  N248  1  0.31990000  0.79900000  0.70410000  1.0
  N  N249  1  0.36160000  0.71290000  0.77690000  1.0
  N  N250  1  0.19190000  0.69730000  0.70670000  1.0
  N  N251  1  0.16280000  0.77720000  0.78390000  1.0
  N  N252  1  0.50950000  0.56300000  0.31980000  1.0
  N  N253  1  0.45290000  0.45070000  0.35460000  1.0
  N  N254  1  0.51730000  0.53730000  0.42470000  1.0
  N  N255  1  0.31020000  0.54500000  0.37420000  1.0
  N  N256  1  0.36030000  0.22240000  0.61410000  1.0
  N  N257  1  0.16040000  0.28360000  0.61200000  1.0
  N  N258  1  0.19320000  0.19890000  0.68660000  1.0
  N  N259  1  0.31330000  0.30450000  0.68840000  1.0
  N  N260  1  0.02070000  0.06110000  0.35620000  1.0
  N  N261  1  0.98440000  0.94970000  0.31610000  1.0
  N  N262  1  0.18710000  0.97740000  0.36730000  1.0
  N  N263  1  0.98490000  0.96490000  0.42120000  1.0
  N  N264  1  0.47450000  0.94900000  0.04210000  1.0
  N  N265  1  0.31850000  0.03570000  0.02080000  1.0
  N  N266  1  0.52250000  0.03550000  0.97120000  1.0
  N  N267  1  0.51510000  0.06220000  0.07370000  1.0
  N  N268  1  0.97420000  0.45660000  0.97550000  1.0
  N  N269  1  0.18270000  0.46780000  0.02550000  1.0
  N  N270  1  0.01500000  0.55050000  0.03730000  1.0
  N  N271  1  0.98740000  0.44020000  0.07930000  1.0
  N  N272  1  0.68010000  0.20100000  0.20410000  1.0
  N  N273  1  0.63840000  0.28710000  0.27690000  1.0
  N  N274  1  0.80810000  0.30270000  0.20670000  1.0
  N  N275  1  0.83720000  0.22280000  0.28390000  1.0
  N  N276  1  0.49050000  0.43700000  0.81980000  1.0
  N  N277  1  0.54710000  0.54930000  0.85460000  1.0
  N  N278  1  0.48270000  0.46270000  0.92470000  1.0
  N  N279  1  0.68980000  0.45500000  0.87420000  1.0
  N  N280  1  0.63970000  0.77760000  0.11410000  1.0
  N  N281  1  0.83960000  0.71640000  0.11200000  1.0
  N  N282  1  0.80680000  0.80110000  0.18660000  1.0
  N  N283  1  0.68670000  0.69550000  0.18840000  1.0
  N  N284  1  0.97930000  0.93890000  0.85620000  1.0
  N  N285  1  0.01560000  0.05030000  0.81610000  1.0
  N  N286  1  0.81290000  0.02260000  0.86730000  1.0
  N  N287  1  0.01510000  0.03510000  0.92120000  1.0
