# generated using pymatgen
data_V2P2H4C4O11
_symmetry_space_group_name_H-M   'P 1'
_cell_length_a   7.04650000
_cell_length_b   15.64600000
_cell_length_c   17.39600000
_cell_angle_alpha   90.00000000
_cell_angle_beta   90.00000000
_cell_angle_gamma   90.00000000
_symmetry_Int_Tables_number   1
_chemical_formula_structural   V2P2H4C4O11
_chemical_formula_sum   'V8 P8 H16 C16 O44'
_cell_volume   1917.90098044
_cell_formula_units_Z   4
loop_
 _symmetry_equiv_pos_site_id
 _symmetry_equiv_pos_as_xyz
  1  'x, y, z'
loop_
 _atom_site_type_symbol
 _atom_site_label
 _atom_site_symmetry_multiplicity
 _atom_site_fract_x
 _atom_site_fract_y
 _atom_site_fract_z
 _atom_site_occupancy
  V  V0  1  0.24690000  0.25000000  0.25000000  1.0
  V  V1  1  0.25310000  0.75000000  0.25000000  1.0
  V  V2  1  0.75310000  0.75000000  0.75000000  1.0
  V  V3  1  0.74690000  0.25000000  0.75000000  1.0
  V  V4  1  0.50000000  0.00000000  0.50000000  1.0
  V  V5  1  0.00000000  0.00000000  0.50000000  1.0
  V  V6  1  0.00000000  0.50000000  0.00000000  1.0
  V  V7  1  0.50000000  0.50000000  0.00000000  1.0
  P  P8  1  0.25330000  0.13322000  0.40057000  1.0
  P  P9  1  0.24670000  0.86678000  0.40057000  1.0
  P  P10  1  0.24670000  0.63322000  0.09943000  1.0
  P  P11  1  0.25330000  0.36678000  0.09943000  1.0
  P  P12  1  0.74670000  0.86678000  0.59943000  1.0
  P  P13  1  0.75330000  0.13322000  0.59943000  1.0
  P  P14  1  0.75330000  0.36678000  0.90057000  1.0
  P  P15  1  0.74670000  0.63322000  0.90057000  1.0
  H  H16  1  0.04680000  0.24240000  0.42750000  1.0
  H  H17  1  0.18830000  0.23020000  0.49580000  1.0
  H  H18  1  0.45320000  0.75760000  0.42750000  1.0
  H  H19  1  0.31170000  0.76980000  0.49580000  1.0
  H  H20  1  0.45320000  0.74240000  0.07250000  1.0
  H  H21  1  0.31170000  0.73020000  0.00420000  1.0
  H  H22  1  0.04680000  0.25760000  0.07250000  1.0
  H  H23  1  0.18830000  0.26980000  0.00420000  1.0
  H  H24  1  0.95320000  0.75760000  0.57250000  1.0
  H  H25  1  0.81170000  0.76980000  0.50420000  1.0
  H  H26  1  0.54680000  0.24240000  0.57250000  1.0
  H  H27  1  0.68830000  0.23020000  0.50420000  1.0
  H  H28  1  0.54680000  0.25760000  0.92750000  1.0
  H  H29  1  0.68830000  0.26980000  0.99580000  1.0
  H  H30  1  0.95320000  0.74240000  0.92750000  1.0
  H  H31  1  0.81170000  0.73020000  0.99580000  1.0
  C  C32  1  0.28900000  0.31160000  0.41430000  1.0
  C  C33  1  0.17940000  0.23380000  0.44030000  1.0
  C  C34  1  0.21100000  0.68840000  0.41430000  1.0
  C  C35  1  0.32060000  0.76620000  0.44030000  1.0
  C  C36  1  0.21100000  0.81160000  0.08570000  1.0
  C  C37  1  0.32060000  0.73380000  0.05970000  1.0
  C  C38  1  0.28900000  0.18840000  0.08570000  1.0
  C  C39  1  0.17940000  0.26620000  0.05970000  1.0
  C  C40  1  0.71100000  0.68840000  0.58570000  1.0
  C  C41  1  0.82060000  0.76620000  0.55970000  1.0
  C  C42  1  0.78900000  0.31160000  0.58570000  1.0
  C  C43  1  0.67940000  0.23380000  0.55970000  1.0
  C  C44  1  0.78900000  0.18840000  0.91430000  1.0
  C  C45  1  0.67940000  0.26620000  0.94030000  1.0
  C  C46  1  0.71100000  0.81160000  0.91430000  1.0
  C  C47  1  0.82060000  0.73380000  0.94030000  1.0
  O  O48  1  0.29240000  0.14630000  0.31510000  1.0
  O  O49  1  0.43430000  0.10430000  0.44170000  1.0
  O  O50  1  0.09020000  0.07110000  0.41260000  1.0
  O  O51  1  0.35940000  0.35990000  0.46080000  1.0
  O  O52  1  0.29910000  0.32490000  0.34170000  1.0
  O  O53  1  0.20760000  0.85370000  0.31510000  1.0
  O  O54  1  0.06570000  0.89570000  0.44170000  1.0
  O  O55  1  0.40980000  0.92890000  0.41260000  1.0
  O  O56  1  0.14060000  0.64010000  0.46080000  1.0
  O  O57  1  0.20090000  0.67510000  0.34170000  1.0
  O  O58  1  0.20760000  0.64630000  0.18490000  1.0
  O  O59  1  0.06570000  0.60430000  0.05830000  1.0
  O  O60  1  0.40980000  0.57110000  0.08740000  1.0
  O  O61  1  0.14060000  0.85990000  0.03920000  1.0
  O  O62  1  0.20090000  0.82490000  0.15830000  1.0
  O  O63  1  0.29240000  0.35370000  0.18490000  1.0
  O  O64  1  0.43430000  0.39570000  0.05830000  1.0
  O  O65  1  0.09020000  0.42890000  0.08740000  1.0
  O  O66  1  0.35940000  0.14010000  0.03920000  1.0
  O  O67  1  0.29910000  0.17510000  0.15830000  1.0
  O  O68  1  0.70760000  0.85370000  0.68490000  1.0
  O  O69  1  0.56570000  0.89570000  0.55830000  1.0
  O  O70  1  0.90980000  0.92890000  0.58740000  1.0
  O  O71  1  0.64060000  0.64010000  0.53920000  1.0
  O  O72  1  0.70090000  0.67510000  0.65830000  1.0
  O  O73  1  0.79240000  0.14630000  0.68490000  1.0
  O  O74  1  0.93430000  0.10430000  0.55830000  1.0
  O  O75  1  0.59020000  0.07110000  0.58740000  1.0
  O  O76  1  0.85940000  0.35990000  0.53920000  1.0
  O  O77  1  0.79910000  0.32490000  0.65830000  1.0
  O  O78  1  0.79240000  0.35370000  0.81510000  1.0
  O  O79  1  0.93430000  0.39570000  0.94170000  1.0
  O  O80  1  0.59020000  0.42890000  0.91260000  1.0
  O  O81  1  0.85940000  0.14010000  0.96080000  1.0
  O  O82  1  0.79910000  0.17510000  0.84170000  1.0
  O  O83  1  0.70760000  0.64630000  0.81510000  1.0
  O  O84  1  0.56570000  0.60430000  0.94170000  1.0
  O  O85  1  0.90980000  0.57110000  0.91260000  1.0
  O  O86  1  0.64060000  0.85990000  0.96080000  1.0
  O  O87  1  0.70090000  0.82490000  0.84170000  1.0
  O  O88  1  0.75000000  0.00000000  0.45820000  1.0
  O  O89  1  0.75000000  0.50000000  0.04180000  1.0
  O  O90  1  0.25000000  0.00000000  0.54180000  1.0
  O  O91  1  0.25000000  0.50000000  0.95820000  1.0
