# generated using pymatgen
data_AgH8(C5N2)2
_symmetry_space_group_name_H-M   'P 1'
_cell_length_a   15.18800000
_cell_length_b   15.18800000
_cell_length_c   15.18800000
_cell_angle_alpha   90.00000000
_cell_angle_beta   90.00000000
_cell_angle_gamma   90.00000000
_symmetry_Int_Tables_number   1
_chemical_formula_structural   AgH8(C5N2)2
_chemical_formula_sum   'Ag12 H96 C120 N48'
_cell_volume   3503.49712467
_cell_formula_units_Z   12
loop_
 _symmetry_equiv_pos_site_id
 _symmetry_equiv_pos_as_xyz
  1  'x, y, z'
loop_
 _atom_site_type_symbol
 _atom_site_label
 _atom_site_symmetry_multiplicity
 _atom_site_fract_x
 _atom_site_fract_y
 _atom_site_fract_z
 _atom_site_occupancy
  Ag  Ag0  1  0.87058000  0.87942000  0.37500000  1.0
  Ag  Ag1  1  0.62942000  0.12058000  0.87500000  1.0
  Ag  Ag2  1  0.12942000  0.37942000  0.12500000  1.0
  Ag  Ag3  1  0.37058000  0.62058000  0.62500000  1.0
  Ag  Ag4  1  0.37500000  0.87058000  0.87942000  1.0
  Ag  Ag5  1  0.87500000  0.62942000  0.12058000  1.0
  Ag  Ag6  1  0.12500000  0.12942000  0.37942000  1.0
  Ag  Ag7  1  0.62500000  0.37058000  0.62058000  1.0
  Ag  Ag8  1  0.87942000  0.37500000  0.87058000  1.0
  Ag  Ag9  1  0.12058000  0.87500000  0.62942000  1.0
  Ag  Ag10  1  0.37942000  0.12500000  0.12942000  1.0
  Ag  Ag11  1  0.62058000  0.62500000  0.37058000  1.0
  H  H12  1  0.97340000  0.04100000  0.25370000  1.0
  H  H13  1  0.96300000  0.05600000  0.09330000  1.0
  H  H14  1  0.84500000  0.95480000  0.04590000  1.0
  H  H15  1  0.78400000  0.79400000  0.07400000  1.0
  H  H16  1  0.52660000  0.95900000  0.75370000  1.0
  H  H17  1  0.53700000  0.94400000  0.59330000  1.0
  H  H18  1  0.65500000  0.04520000  0.54590000  1.0
  H  H19  1  0.71600000  0.20600000  0.57400000  1.0
  H  H20  1  0.02660000  0.54100000  0.24630000  1.0
  H  H21  1  0.03700000  0.55600000  0.40670000  1.0
  H  H22  1  0.15500000  0.45480000  0.45410000  1.0
  H  H23  1  0.21600000  0.29400000  0.42600000  1.0
  H  H24  1  0.47340000  0.45900000  0.74630000  1.0
  H  H25  1  0.46300000  0.44400000  0.90670000  1.0
  H  H26  1  0.34500000  0.54520000  0.95410000  1.0
  H  H27  1  0.28400000  0.70600000  0.92600000  1.0
  H  H28  1  0.25370000  0.97340000  0.04100000  1.0
  H  H29  1  0.09330000  0.96300000  0.05600000  1.0
  H  H30  1  0.04590000  0.84500000  0.95480000  1.0
  H  H31  1  0.07400000  0.78400000  0.79400000  1.0
  H  H32  1  0.75370000  0.52660000  0.95900000  1.0
  H  H33  1  0.59330000  0.53700000  0.94400000  1.0
  H  H34  1  0.54590000  0.65500000  0.04520000  1.0
  H  H35  1  0.57400000  0.71600000  0.20600000  1.0
  H  H36  1  0.24630000  0.02660000  0.54100000  1.0
  H  H37  1  0.40670000  0.03700000  0.55600000  1.0
  H  H38  1  0.45410000  0.15500000  0.45480000  1.0
  H  H39  1  0.42600000  0.21600000  0.29400000  1.0
  H  H40  1  0.74630000  0.47340000  0.45900000  1.0
  H  H41  1  0.90670000  0.46300000  0.44400000  1.0
  H  H42  1  0.95410000  0.34500000  0.54520000  1.0
  H  H43  1  0.92600000  0.28400000  0.70600000  1.0
  H  H44  1  0.04100000  0.25370000  0.97340000  1.0
  H  H45  1  0.05600000  0.09330000  0.96300000  1.0
  H  H46  1  0.95480000  0.04590000  0.84500000  1.0
  H  H47  1  0.79400000  0.07400000  0.78400000  1.0
  H  H48  1  0.95900000  0.75370000  0.52660000  1.0
  H  H49  1  0.94400000  0.59330000  0.53700000  1.0
  H  H50  1  0.04520000  0.54590000  0.65500000  1.0
  H  H51  1  0.20600000  0.57400000  0.71600000  1.0
  H  H52  1  0.54100000  0.24630000  0.02660000  1.0
  H  H53  1  0.55600000  0.40670000  0.03700000  1.0
  H  H54  1  0.45480000  0.45410000  0.15500000  1.0
  H  H55  1  0.29400000  0.42600000  0.21600000  1.0
  H  H56  1  0.45900000  0.74630000  0.47340000  1.0
  H  H57  1  0.44400000  0.90670000  0.46300000  1.0
  H  H58  1  0.54520000  0.95410000  0.34500000  1.0
  H  H59  1  0.70600000  0.92600000  0.28400000  1.0
  H  H60  1  0.79100000  0.22340000  0.99630000  1.0
  H  H61  1  0.80600000  0.21300000  0.15670000  1.0
  H  H62  1  0.70480000  0.09500000  0.20410000  1.0
  H  H63  1  0.54400000  0.03400000  0.17600000  1.0
  H  H64  1  0.70900000  0.77660000  0.49630000  1.0
  H  H65  1  0.69400000  0.78700000  0.65670000  1.0
  H  H66  1  0.79520000  0.90500000  0.70410000  1.0
  H  H67  1  0.95600000  0.96600000  0.67600000  1.0
  H  H68  1  0.29100000  0.27660000  0.00370000  1.0
  H  H69  1  0.30600000  0.28700000  0.84330000  1.0
  H  H70  1  0.20480000  0.40500000  0.79590000  1.0
  H  H71  1  0.04400000  0.46600000  0.82400000  1.0
  H  H72  1  0.20900000  0.72340000  0.50370000  1.0
  H  H73  1  0.19400000  0.71300000  0.34330000  1.0
  H  H74  1  0.29520000  0.59500000  0.29590000  1.0
  H  H75  1  0.45600000  0.53400000  0.32400000  1.0
  H  H76  1  0.72340000  0.50370000  0.20900000  1.0
  H  H77  1  0.71300000  0.34330000  0.19400000  1.0
  H  H78  1  0.59500000  0.29590000  0.29520000  1.0
  H  H79  1  0.53400000  0.32400000  0.45600000  1.0
  H  H80  1  0.27660000  0.00370000  0.29100000  1.0
  H  H81  1  0.28700000  0.84330000  0.30600000  1.0
  H  H82  1  0.40500000  0.79590000  0.20480000  1.0
  H  H83  1  0.46600000  0.82400000  0.04400000  1.0
  H  H84  1  0.77660000  0.49630000  0.70900000  1.0
  H  H85  1  0.78700000  0.65670000  0.69400000  1.0
  H  H86  1  0.90500000  0.70410000  0.79520000  1.0
  H  H87  1  0.96600000  0.67600000  0.95600000  1.0
  H  H88  1  0.22340000  0.99630000  0.79100000  1.0
  H  H89  1  0.21300000  0.15670000  0.80600000  1.0
  H  H90  1  0.09500000  0.20410000  0.70480000  1.0
  H  H91  1  0.03400000  0.17600000  0.54400000  1.0
  H  H92  1  0.00370000  0.29100000  0.27660000  1.0
  H  H93  1  0.84330000  0.30600000  0.28700000  1.0
  H  H94  1  0.79590000  0.20480000  0.40500000  1.0
  H  H95  1  0.82400000  0.04400000  0.46600000  1.0
  H  H96  1  0.50370000  0.20900000  0.72340000  1.0
  H  H97  1  0.34330000  0.19400000  0.71300000  1.0
  H  H98  1  0.29590000  0.29520000  0.59500000  1.0
  H  H99  1  0.32400000  0.45600000  0.53400000  1.0
  H  H100  1  0.99630000  0.79100000  0.22340000  1.0
  H  H101  1  0.15670000  0.80600000  0.21300000  1.0
  H  H102  1  0.20410000  0.70480000  0.09500000  1.0
  H  H103  1  0.17600000  0.54400000  0.03400000  1.0
  H  H104  1  0.49630000  0.70900000  0.77660000  1.0
  H  H105  1  0.65670000  0.69400000  0.78700000  1.0
  H  H106  1  0.70410000  0.79520000  0.90500000  1.0
  H  H107  1  0.67600000  0.95600000  0.96600000  1.0
  C  C108  1  0.93380000  0.01040000  0.21840000  1.0
  C  C109  1  0.92900000  0.01950000  0.12880000  1.0
  C  C110  1  0.86430000  0.96430000  0.10320000  1.0
  C  C111  1  0.76120000  0.86500000  0.18420000  1.0
  C  C112  1  0.75310000  0.79740000  0.12430000  1.0
  C  C113  1  0.56620000  0.98960000  0.71840000  1.0
  C  C114  1  0.57100000  0.98050000  0.62880000  1.0
  C  C115  1  0.63570000  0.03570000  0.60320000  1.0
  C  C116  1  0.73880000  0.13500000  0.68420000  1.0
  C  C117  1  0.74690000  0.20260000  0.62430000  1.0
  C  C118  1  0.06620000  0.51040000  0.28160000  1.0
  C  C119  1  0.07100000  0.51950000  0.37120000  1.0
  C  C120  1  0.13570000  0.46430000  0.39680000  1.0
  C  C121  1  0.23880000  0.36500000  0.31580000  1.0
  C  C122  1  0.24690000  0.29740000  0.37570000  1.0
  C  C123  1  0.43380000  0.48960000  0.78160000  1.0
  C  C124  1  0.42900000  0.48050000  0.87120000  1.0
  C  C125  1  0.36430000  0.53570000  0.89680000  1.0
  C  C126  1  0.26120000  0.63500000  0.81580000  1.0
  C  C127  1  0.25310000  0.70260000  0.87570000  1.0
  C  C128  1  0.21840000  0.93380000  0.01040000  1.0
  C  C129  1  0.12880000  0.92900000  0.01950000  1.0
  C  C130  1  0.10320000  0.86430000  0.96430000  1.0
  C  C131  1  0.18420000  0.76120000  0.86500000  1.0
  C  C132  1  0.12430000  0.75310000  0.79740000  1.0
  C  C133  1  0.71840000  0.56620000  0.98960000  1.0
  C  C134  1  0.62880000  0.57100000  0.98050000  1.0
  C  C135  1  0.60320000  0.63570000  0.03570000  1.0
  C  C136  1  0.68420000  0.73880000  0.13500000  1.0
  C  C137  1  0.62430000  0.74690000  0.20260000  1.0
  C  C138  1  0.28160000  0.06620000  0.51040000  1.0
  C  C139  1  0.37120000  0.07100000  0.51950000  1.0
  C  C140  1  0.39680000  0.13570000  0.46430000  1.0
  C  C141  1  0.31580000  0.23880000  0.36500000  1.0
  C  C142  1  0.37570000  0.24690000  0.29740000  1.0
  C  C143  1  0.78160000  0.43380000  0.48960000  1.0
  C  C144  1  0.87120000  0.42900000  0.48050000  1.0
  C  C145  1  0.89680000  0.36430000  0.53570000  1.0
  C  C146  1  0.81580000  0.26120000  0.63500000  1.0
  C  C147  1  0.87570000  0.25310000  0.70260000  1.0
  C  C148  1  0.01040000  0.21840000  0.93380000  1.0
  C  C149  1  0.01950000  0.12880000  0.92900000  1.0
  C  C150  1  0.96430000  0.10320000  0.86430000  1.0
  C  C151  1  0.86500000  0.18420000  0.76120000  1.0
  C  C152  1  0.79740000  0.12430000  0.75310000  1.0
  C  C153  1  0.98960000  0.71840000  0.56620000  1.0
  C  C154  1  0.98050000  0.62880000  0.57100000  1.0
  C  C155  1  0.03570000  0.60320000  0.63570000  1.0
  C  C156  1  0.13500000  0.68420000  0.73880000  1.0
  C  C157  1  0.20260000  0.62430000  0.74690000  1.0
  C  C158  1  0.51040000  0.28160000  0.06620000  1.0
  C  C159  1  0.51950000  0.37120000  0.07100000  1.0
  C  C160  1  0.46430000  0.39680000  0.13570000  1.0
  C  C161  1  0.36500000  0.31580000  0.23880000  1.0
  C  C162  1  0.29740000  0.37570000  0.24690000  1.0
  C  C163  1  0.48960000  0.78160000  0.43380000  1.0
  C  C164  1  0.48050000  0.87120000  0.42900000  1.0
  C  C165  1  0.53570000  0.89680000  0.36430000  1.0
  C  C166  1  0.63500000  0.81580000  0.26120000  1.0
  C  C167  1  0.70260000  0.87570000  0.25310000  1.0
  C  C168  1  0.76040000  0.18380000  0.03160000  1.0
  C  C169  1  0.76950000  0.17900000  0.12120000  1.0
  C  C170  1  0.71430000  0.11430000  0.14680000  1.0
  C  C171  1  0.61500000  0.01120000  0.06580000  1.0
  C  C172  1  0.54740000  0.00310000  0.12570000  1.0
  C  C173  1  0.73960000  0.81620000  0.53160000  1.0
  C  C174  1  0.73050000  0.82100000  0.62120000  1.0
  C  C175  1  0.78570000  0.88570000  0.64680000  1.0
  C  C176  1  0.88500000  0.98880000  0.56580000  1.0
  C  C177  1  0.95260000  0.99690000  0.62570000  1.0
  C  C178  1  0.26040000  0.31620000  0.96840000  1.0
  C  C179  1  0.26950000  0.32100000  0.87880000  1.0
  C  C180  1  0.21430000  0.38570000  0.85320000  1.0
  C  C181  1  0.11500000  0.48880000  0.93420000  1.0
  C  C182  1  0.04740000  0.49690000  0.87430000  1.0
  C  C183  1  0.23960000  0.68380000  0.46840000  1.0
  C  C184  1  0.23050000  0.67900000  0.37880000  1.0
  C  C185  1  0.28570000  0.61430000  0.35320000  1.0
  C  C186  1  0.38500000  0.51120000  0.43420000  1.0
  C  C187  1  0.45260000  0.50310000  0.37430000  1.0
  C  C188  1  0.68380000  0.46840000  0.23960000  1.0
  C  C189  1  0.67900000  0.37880000  0.23050000  1.0
  C  C190  1  0.61430000  0.35320000  0.28570000  1.0
  C  C191  1  0.51120000  0.43420000  0.38500000  1.0
  C  C192  1  0.50310000  0.37430000  0.45260000  1.0
  C  C193  1  0.31620000  0.96840000  0.26040000  1.0
  C  C194  1  0.32100000  0.87880000  0.26950000  1.0
  C  C195  1  0.38570000  0.85320000  0.21430000  1.0
  C  C196  1  0.48880000  0.93420000  0.11500000  1.0
  C  C197  1  0.49690000  0.87430000  0.04740000  1.0
  C  C198  1  0.81620000  0.53160000  0.73960000  1.0
  C  C199  1  0.82100000  0.62120000  0.73050000  1.0
  C  C200  1  0.88570000  0.64680000  0.78570000  1.0
  C  C201  1  0.98880000  0.56580000  0.88500000  1.0
  C  C202  1  0.99690000  0.62570000  0.95260000  1.0
  C  C203  1  0.18380000  0.03160000  0.76040000  1.0
  C  C204  1  0.17900000  0.12120000  0.76950000  1.0
  C  C205  1  0.11430000  0.14680000  0.71430000  1.0
  C  C206  1  0.01120000  0.06580000  0.61500000  1.0
  C  C207  1  0.00310000  0.12570000  0.54740000  1.0
  C  C208  1  0.96840000  0.26040000  0.31620000  1.0
  C  C209  1  0.87880000  0.26950000  0.32100000  1.0
  C  C210  1  0.85320000  0.21430000  0.38570000  1.0
  C  C211  1  0.93420000  0.11500000  0.48880000  1.0
  C  C212  1  0.87430000  0.04740000  0.49690000  1.0
  C  C213  1  0.46840000  0.23960000  0.68380000  1.0
  C  C214  1  0.37880000  0.23050000  0.67900000  1.0
  C  C215  1  0.35320000  0.28570000  0.61430000  1.0
  C  C216  1  0.43420000  0.38500000  0.51120000  1.0
  C  C217  1  0.37430000  0.45260000  0.50310000  1.0
  C  C218  1  0.03160000  0.76040000  0.18380000  1.0
  C  C219  1  0.12120000  0.76950000  0.17900000  1.0
  C  C220  1  0.14680000  0.71430000  0.11430000  1.0
  C  C221  1  0.06580000  0.61500000  0.01120000  1.0
  C  C222  1  0.12570000  0.54740000  0.00310000  1.0
  C  C223  1  0.53160000  0.73960000  0.81620000  1.0
  C  C224  1  0.62120000  0.73050000  0.82100000  1.0
  C  C225  1  0.64680000  0.78570000  0.88570000  1.0
  C  C226  1  0.56580000  0.88500000  0.98880000  1.0
  C  C227  1  0.62570000  0.95260000  0.99690000  1.0
  N  N228  1  0.87590000  0.95320000  0.24880000  1.0
  N  N229  1  0.83304000  0.92550000  0.17620000  1.0
  N  N230  1  0.62410000  0.04680000  0.74880000  1.0
  N  N231  1  0.66696000  0.07450000  0.67620000  1.0
  N  N232  1  0.12410000  0.45320000  0.25120000  1.0
  N  N233  1  0.16696000  0.42550000  0.32380000  1.0
  N  N234  1  0.37590000  0.54680000  0.75120000  1.0
  N  N235  1  0.33304000  0.57450000  0.82380000  1.0
  N  N236  1  0.24880000  0.87590000  0.95320000  1.0
  N  N237  1  0.17620000  0.83304000  0.92550000  1.0
  N  N238  1  0.74880000  0.62410000  0.04680000  1.0
  N  N239  1  0.67620000  0.66696000  0.07450000  1.0
  N  N240  1  0.25120000  0.12410000  0.45320000  1.0
  N  N241  1  0.32380000  0.16696000  0.42550000  1.0
  N  N242  1  0.75120000  0.37590000  0.54680000  1.0
  N  N243  1  0.82380000  0.33304000  0.57450000  1.0
  N  N244  1  0.95320000  0.24880000  0.87590000  1.0
  N  N245  1  0.92550000  0.17620000  0.83304000  1.0
  N  N246  1  0.04680000  0.74880000  0.62410000  1.0
  N  N247  1  0.07450000  0.67620000  0.66696000  1.0
  N  N248  1  0.45320000  0.25120000  0.12410000  1.0
  N  N249  1  0.42550000  0.32380000  0.16696000  1.0
  N  N250  1  0.54680000  0.75120000  0.37590000  1.0
  N  N251  1  0.57450000  0.82380000  0.33304000  1.0
  N  N252  1  0.70320000  0.12590000  0.00120000  1.0
  N  N253  1  0.67550000  0.08304000  0.07380000  1.0
  N  N254  1  0.79680000  0.87410000  0.50120000  1.0
  N  N255  1  0.82450000  0.91696000  0.57380000  1.0
  N  N256  1  0.20320000  0.37410000  0.99880000  1.0
  N  N257  1  0.17550000  0.41696000  0.92620000  1.0
  N  N258  1  0.29680000  0.62590000  0.49880000  1.0
  N  N259  1  0.32450000  0.58304000  0.42620000  1.0
  N  N260  1  0.62590000  0.49880000  0.29680000  1.0
  N  N261  1  0.58304000  0.42620000  0.32450000  1.0
  N  N262  1  0.37410000  0.99880000  0.20320000  1.0
  N  N263  1  0.41696000  0.92620000  0.17550000  1.0
  N  N264  1  0.87410000  0.50120000  0.79680000  1.0
  N  N265  1  0.91696000  0.57380000  0.82450000  1.0
  N  N266  1  0.12590000  0.00120000  0.70320000  1.0
  N  N267  1  0.08304000  0.07380000  0.67550000  1.0
  N  N268  1  0.99880000  0.20320000  0.37410000  1.0
  N  N269  1  0.92620000  0.17550000  0.41696000  1.0
  N  N270  1  0.49880000  0.29680000  0.62590000  1.0
  N  N271  1  0.42620000  0.32450000  0.58304000  1.0
  N  N272  1  0.00120000  0.70320000  0.12590000  1.0
  N  N273  1  0.07380000  0.67550000  0.08304000  1.0
  N  N274  1  0.50120000  0.79680000  0.87410000  1.0
  N  N275  1  0.57380000  0.82450000  0.91696000  1.0
