# generated using pymatgen
data_Mn3H6C18O13
_symmetry_space_group_name_H-M   'P 1'
_cell_length_a   15.40350000
_cell_length_b   16.23110000
_cell_length_c   26.26800000
_cell_angle_alpha   90.00000000
_cell_angle_beta   95.18700000
_cell_angle_gamma   90.00000000
_symmetry_Int_Tables_number   1
_chemical_formula_structural   Mn3H6C18O13
_chemical_formula_sum   'Mn24 H48 C144 O104'
_cell_volume   6540.51971707
_cell_formula_units_Z   8
loop_
 _symmetry_equiv_pos_site_id
 _symmetry_equiv_pos_as_xyz
  1  'x, y, z'
loop_
 _atom_site_type_symbol
 _atom_site_label
 _atom_site_symmetry_multiplicity
 _atom_site_fract_x
 _atom_site_fract_y
 _atom_site_fract_z
 _atom_site_occupancy
  Mn  Mn0  1  0.83428000  0.23169000  0.65592000  1.0
  Mn  Mn1  1  0.67876000  0.24091000  0.54724000  1.0
  Mn  Mn2  1  0.75278000  0.04704000  0.61445000  1.0
  Mn  Mn3  1  0.33428000  0.73169000  0.65592000  1.0
  Mn  Mn4  1  0.17876000  0.74091000  0.54724000  1.0
  Mn  Mn5  1  0.25278000  0.54704000  0.61445000  1.0
  Mn  Mn6  1  0.16572000  0.23169000  0.84408000  1.0
  Mn  Mn7  1  0.32124000  0.24091000  0.95276000  1.0
  Mn  Mn8  1  0.24722000  0.04704000  0.88555000  1.0
  Mn  Mn9  1  0.66572000  0.73169000  0.84408000  1.0
  Mn  Mn10  1  0.82124000  0.74091000  0.95276000  1.0
  Mn  Mn11  1  0.74722000  0.54704000  0.88555000  1.0
  Mn  Mn12  1  0.16572000  0.76831000  0.34408000  1.0
  Mn  Mn13  1  0.32124000  0.75909000  0.45276000  1.0
  Mn  Mn14  1  0.24722000  0.95296000  0.38555000  1.0
  Mn  Mn15  1  0.66572000  0.26831000  0.34408000  1.0
  Mn  Mn16  1  0.82124000  0.25909000  0.45276000  1.0
  Mn  Mn17  1  0.74722000  0.45296000  0.38555000  1.0
  Mn  Mn18  1  0.83428000  0.76831000  0.15592000  1.0
  Mn  Mn19  1  0.67876000  0.75909000  0.04724000  1.0
  Mn  Mn20  1  0.75278000  0.95296000  0.11445000  1.0
  Mn  Mn21  1  0.33428000  0.26831000  0.15592000  1.0
  Mn  Mn22  1  0.17876000  0.25909000  0.04724000  1.0
  Mn  Mn23  1  0.25278000  0.45296000  0.11445000  1.0
  H  H24  1  0.55200000  0.44900000  0.62100000  1.0
  H  H25  1  0.98200000  0.44500000  0.59200000  1.0
  H  H26  1  0.56900000  0.62300000  0.71900000  1.0
  H  H27  1  0.94000000  0.64100000  0.51300000  1.0
  H  H28  1  0.77800000  0.47000000  0.50000000  1.0
  H  H29  1  0.74000000  0.43000000  0.70900000  1.0
  H  H30  1  0.05200000  0.94900000  0.62100000  1.0
  H  H31  1  0.48200000  0.94500000  0.59200000  1.0
  H  H32  1  0.06900000  0.12300000  0.71900000  1.0
  H  H33  1  0.44000000  0.14100000  0.51300000  1.0
  H  H34  1  0.27800000  0.97000000  0.50000000  1.0
  H  H35  1  0.24000000  0.93000000  0.70900000  1.0
  H  H36  1  0.44800000  0.44900000  0.87900000  1.0
  H  H37  1  0.01800000  0.44500000  0.90800000  1.0
  H  H38  1  0.43100000  0.62300000  0.78100000  1.0
  H  H39  1  0.06000000  0.64100000  0.98700000  1.0
  H  H40  1  0.22200000  0.47000000  0.00000000  1.0
  H  H41  1  0.26000000  0.43000000  0.79100000  1.0
  H  H42  1  0.94800000  0.94900000  0.87900000  1.0
  H  H43  1  0.51800000  0.94500000  0.90800000  1.0
  H  H44  1  0.93100000  0.12300000  0.78100000  1.0
  H  H45  1  0.56000000  0.14100000  0.98700000  1.0
  H  H46  1  0.72200000  0.97000000  0.00000000  1.0
  H  H47  1  0.76000000  0.93000000  0.79100000  1.0
  H  H48  1  0.44800000  0.55100000  0.37900000  1.0
  H  H49  1  0.01800000  0.55500000  0.40800000  1.0
  H  H50  1  0.43100000  0.37700000  0.28100000  1.0
  H  H51  1  0.06000000  0.35900000  0.48700000  1.0
  H  H52  1  0.22200000  0.53000000  0.50000000  1.0
  H  H53  1  0.26000000  0.57000000  0.29100000  1.0
  H  H54  1  0.94800000  0.05100000  0.37900000  1.0
  H  H55  1  0.51800000  0.05500000  0.40800000  1.0
  H  H56  1  0.93100000  0.87700000  0.28100000  1.0
  H  H57  1  0.56000000  0.85900000  0.48700000  1.0
  H  H58  1  0.72200000  0.03000000  0.50000000  1.0
  H  H59  1  0.76000000  0.07000000  0.29100000  1.0
  H  H60  1  0.55200000  0.55100000  0.12100000  1.0
  H  H61  1  0.98200000  0.55500000  0.09200000  1.0
  H  H62  1  0.56900000  0.37700000  0.21900000  1.0
  H  H63  1  0.94000000  0.35900000  0.01300000  1.0
  H  H64  1  0.77800000  0.53000000  0.00000000  1.0
  H  H65  1  0.74000000  0.57000000  0.20900000  1.0
  H  H66  1  0.05200000  0.05100000  0.12100000  1.0
  H  H67  1  0.48200000  0.05500000  0.09200000  1.0
  H  H68  1  0.06900000  0.87700000  0.21900000  1.0
  H  H69  1  0.44000000  0.85900000  0.01300000  1.0
  H  H70  1  0.27800000  0.03000000  0.00000000  1.0
  H  H71  1  0.24000000  0.07000000  0.20900000  1.0
  C  C72  1  0.84450000  0.35580000  0.56120000  1.0
  C  C73  1  0.68730000  0.46000000  0.71010000  1.0
  C  C74  1  0.64130000  0.42860000  0.66666667  1.0
  C  C75  1  0.66270000  0.53550000  0.73030000  1.0
  C  C76  1  0.94880000  0.47560000  0.56890000  1.0
  C  C77  1  0.97400000  0.55250000  0.55430000  1.0
  C  C78  1  0.87220000  0.44060000  0.54700000  1.0
  C  C79  1  0.56790000  0.46840000  0.64720000  1.0
  C  C80  1  0.84490000  0.56190000  0.49520000  1.0
  C  C81  1  0.67320000  0.35020000  0.64330000  1.0
  C  C82  1  0.82140000  0.48580000  0.51040000  1.0
  C  C83  1  0.92080000  0.59540000  0.51750000  1.0
  C  C84  1  0.06120000  0.59010000  0.57260000  1.0
  C  C85  1  0.54080000  0.54140000  0.66650000  1.0
  C  C86  1  0.45780000  0.58160000  0.64660000  1.0
  C  C87  1  0.70870000  0.56820000  0.77840000  1.0
  C  C88  1  0.59080000  0.57650000  0.70800000  1.0
  C  C89  1  0.79310000  0.60530000  0.45220000  1.0
  C  C90  1  0.34450000  0.85580000  0.56120000  1.0
  C  C91  1  0.18730000  0.96000000  0.71010000  1.0
  C  C92  1  0.14130000  0.92860000  0.66666667  1.0
  C  C93  1  0.16270000  0.03550000  0.73030000  1.0
  C  C94  1  0.44880000  0.97560000  0.56890000  1.0
  C  C95  1  0.47400000  0.05250000  0.55430000  1.0
  C  C96  1  0.37220000  0.94060000  0.54700000  1.0
  C  C97  1  0.06790000  0.96840000  0.64720000  1.0
  C  C98  1  0.34490000  0.06190000  0.49520000  1.0
  C  C99  1  0.17320000  0.85020000  0.64330000  1.0
  C  C100  1  0.32140000  0.98580000  0.51040000  1.0
  C  C101  1  0.42080000  0.09540000  0.51750000  1.0
  C  C102  1  0.56120000  0.09010000  0.57260000  1.0
  C  C103  1  0.04080000  0.04140000  0.66650000  1.0
  C  C104  1  0.95780000  0.08160000  0.64660000  1.0
  C  C105  1  0.20870000  0.06820000  0.77840000  1.0
  C  C106  1  0.09080000  0.07650000  0.70800000  1.0
  C  C107  1  0.29310000  0.10530000  0.45220000  1.0
  C  C108  1  0.15550000  0.35580000  0.93880000  1.0
  C  C109  1  0.31270000  0.46000000  0.78990000  1.0
  C  C110  1  0.35870000  0.42860000  0.83330000  1.0
  C  C111  1  0.33730000  0.53550000  0.76970000  1.0
  C  C112  1  0.05120000  0.47560000  0.93110000  1.0
  C  C113  1  0.02600000  0.55250000  0.94570000  1.0
  C  C114  1  0.12780000  0.44060000  0.95300000  1.0
  C  C115  1  0.43210000  0.46840000  0.85280000  1.0
  C  C116  1  0.15510000  0.56190000  0.00480000  1.0
  C  C117  1  0.32680000  0.35020000  0.85670000  1.0
  C  C118  1  0.17860000  0.48580000  0.98960000  1.0
  C  C119  1  0.07920000  0.59540000  0.98250000  1.0
  C  C120  1  0.93880000  0.59010000  0.92740000  1.0
  C  C121  1  0.45920000  0.54140000  0.83350000  1.0
  C  C122  1  0.54220000  0.58160000  0.85340000  1.0
  C  C123  1  0.29130000  0.56820000  0.72160000  1.0
  C  C124  1  0.40920000  0.57650000  0.79200000  1.0
  C  C125  1  0.20690000  0.60530000  0.04780000  1.0
  C  C126  1  0.65550000  0.85580000  0.93880000  1.0
  C  C127  1  0.81270000  0.96000000  0.78990000  1.0
  C  C128  1  0.85870000  0.92860000  0.83330000  1.0
  C  C129  1  0.83730000  0.03550000  0.76970000  1.0
  C  C130  1  0.55120000  0.97560000  0.93110000  1.0
  C  C131  1  0.52600000  0.05250000  0.94570000  1.0
  C  C132  1  0.62780000  0.94060000  0.95300000  1.0
  C  C133  1  0.93210000  0.96840000  0.85280000  1.0
  C  C134  1  0.65510000  0.06190000  0.00480000  1.0
  C  C135  1  0.82680000  0.85020000  0.85670000  1.0
  C  C136  1  0.67860000  0.98580000  0.98960000  1.0
  C  C137  1  0.57920000  0.09540000  0.98250000  1.0
  C  C138  1  0.43880000  0.09010000  0.92740000  1.0
  C  C139  1  0.95920000  0.04140000  0.83350000  1.0
  C  C140  1  0.04220000  0.08160000  0.85340000  1.0
  C  C141  1  0.79130000  0.06820000  0.72160000  1.0
  C  C142  1  0.90920000  0.07650000  0.79200000  1.0
  C  C143  1  0.70690000  0.10530000  0.04780000  1.0
  C  C144  1  0.15550000  0.64420000  0.43880000  1.0
  C  C145  1  0.31270000  0.54000000  0.28990000  1.0
  C  C146  1  0.35870000  0.57140000  0.33333333  1.0
  C  C147  1  0.33730000  0.46450000  0.26970000  1.0
  C  C148  1  0.05120000  0.52440000  0.43110000  1.0
  C  C149  1  0.02600000  0.44750000  0.44570000  1.0
  C  C150  1  0.12780000  0.55940000  0.45300000  1.0
  C  C151  1  0.43210000  0.53160000  0.35280000  1.0
  C  C152  1  0.15510000  0.43810000  0.50480000  1.0
  C  C153  1  0.32680000  0.64980000  0.35670000  1.0
  C  C154  1  0.17860000  0.51420000  0.48960000  1.0
  C  C155  1  0.07920000  0.40460000  0.48250000  1.0
  C  C156  1  0.93880000  0.40990000  0.42740000  1.0
  C  C157  1  0.45920000  0.45860000  0.33350000  1.0
  C  C158  1  0.54220000  0.41840000  0.35340000  1.0
  C  C159  1  0.29130000  0.43180000  0.22160000  1.0
  C  C160  1  0.40920000  0.42350000  0.29200000  1.0
  C  C161  1  0.20690000  0.39470000  0.54780000  1.0
  C  C162  1  0.65550000  0.14420000  0.43880000  1.0
  C  C163  1  0.81270000  0.04000000  0.28990000  1.0
  C  C164  1  0.85870000  0.07140000  0.33333333  1.0
  C  C165  1  0.83730000  0.96450000  0.26970000  1.0
  C  C166  1  0.55120000  0.02440000  0.43110000  1.0
  C  C167  1  0.52600000  0.94750000  0.44570000  1.0
  C  C168  1  0.62780000  0.05940000  0.45300000  1.0
  C  C169  1  0.93210000  0.03160000  0.35280000  1.0
  C  C170  1  0.65510000  0.93810000  0.50480000  1.0
  C  C171  1  0.82680000  0.14980000  0.35670000  1.0
  C  C172  1  0.67860000  0.01420000  0.48960000  1.0
  C  C173  1  0.57920000  0.90460000  0.48250000  1.0
  C  C174  1  0.43880000  0.90990000  0.42740000  1.0
  C  C175  1  0.95920000  0.95860000  0.33350000  1.0
  C  C176  1  0.04220000  0.91840000  0.35340000  1.0
  C  C177  1  0.79130000  0.93180000  0.22160000  1.0
  C  C178  1  0.90920000  0.92350000  0.29200000  1.0
  C  C179  1  0.70690000  0.89470000  0.54780000  1.0
  C  C180  1  0.84450000  0.64420000  0.06120000  1.0
  C  C181  1  0.68730000  0.54000000  0.21010000  1.0
  C  C182  1  0.64130000  0.57140000  0.16670000  1.0
  C  C183  1  0.66270000  0.46450000  0.23030000  1.0
  C  C184  1  0.94880000  0.52440000  0.06890000  1.0
  C  C185  1  0.97400000  0.44750000  0.05430000  1.0
  C  C186  1  0.87220000  0.55940000  0.04700000  1.0
  C  C187  1  0.56790000  0.53160000  0.14720000  1.0
  C  C188  1  0.84490000  0.43810000  0.99520000  1.0
  C  C189  1  0.67320000  0.64980000  0.14330000  1.0
  C  C190  1  0.82140000  0.51420000  0.01040000  1.0
  C  C191  1  0.92080000  0.40460000  0.01750000  1.0
  C  C192  1  0.06120000  0.40990000  0.07260000  1.0
  C  C193  1  0.54080000  0.45860000  0.16650000  1.0
  C  C194  1  0.45780000  0.41840000  0.14660000  1.0
  C  C195  1  0.70870000  0.43180000  0.27840000  1.0
  C  C196  1  0.59080000  0.42350000  0.20800000  1.0
  C  C197  1  0.79310000  0.39470000  0.95220000  1.0
  C  C198  1  0.34450000  0.14420000  0.06120000  1.0
  C  C199  1  0.18730000  0.04000000  0.21010000  1.0
  C  C200  1  0.14130000  0.07140000  0.16670000  1.0
  C  C201  1  0.16270000  0.96450000  0.23030000  1.0
  C  C202  1  0.44880000  0.02440000  0.06890000  1.0
  C  C203  1  0.47400000  0.94750000  0.05430000  1.0
  C  C204  1  0.37220000  0.05940000  0.04700000  1.0
  C  C205  1  0.06790000  0.03160000  0.14720000  1.0
  C  C206  1  0.34490000  0.93810000  0.99520000  1.0
  C  C207  1  0.17320000  0.14980000  0.14330000  1.0
  C  C208  1  0.32140000  0.01420000  0.01040000  1.0
  C  C209  1  0.42080000  0.90460000  0.01750000  1.0
  C  C210  1  0.56120000  0.90990000  0.07260000  1.0
  C  C211  1  0.04080000  0.95860000  0.16650000  1.0
  C  C212  1  0.95780000  0.91840000  0.14660000  1.0
  C  C213  1  0.20870000  0.93180000  0.27840000  1.0
  C  C214  1  0.09080000  0.92350000  0.20800000  1.0
  C  C215  1  0.29310000  0.89470000  0.95220000  1.0
  O  O216  1  0.64050000  0.33170000  0.59980000  1.0
  O  O217  1  0.79050000  0.31910000  0.52949000  1.0
  O  O218  1  0.07450000  0.66290000  0.55790000  1.0
  O  O219  1  0.11240000  0.54760000  0.60090000  1.0
  O  O220  1  0.77440000  0.16580000  0.58846000  1.0
  O  O221  1  0.72700000  0.30910000  0.67010000  1.0
  O  O222  1  0.87540000  0.32800000  0.60320000  1.0
  O  O223  1  0.73930000  0.56510000  0.42300000  1.0
  O  O224  1  0.39890000  0.53650000  0.62540000  1.0
  O  O225  1  0.45000000  0.65800000  0.65300000  1.0
  O  O226  1  0.74860000  0.51560000  0.80830000  1.0
  O  O227  1  0.70320000  0.64240000  0.78920000  1.0
  O  O228  1  0.80260000  0.68030000  0.44810000  1.0
  O  O229  1  0.14050000  0.83170000  0.59980000  1.0
  O  O230  1  0.29050000  0.81910000  0.52949000  1.0
  O  O231  1  0.57450000  0.16290000  0.55790000  1.0
  O  O232  1  0.61240000  0.04760000  0.60090000  1.0
  O  O233  1  0.27440000  0.66580000  0.58846000  1.0
  O  O234  1  0.22700000  0.80910000  0.67010000  1.0
  O  O235  1  0.37540000  0.82800000  0.60320000  1.0
  O  O236  1  0.23930000  0.06510000  0.42300000  1.0
  O  O237  1  0.89890000  0.03650000  0.62540000  1.0
  O  O238  1  0.95000000  0.15800000  0.65300000  1.0
  O  O239  1  0.24860000  0.01560000  0.80830000  1.0
  O  O240  1  0.20320000  0.14240000  0.78920000  1.0
  O  O241  1  0.30260000  0.18030000  0.44810000  1.0
  O  O242  1  0.35950000  0.33170000  0.90020000  1.0
  O  O243  1  0.20950000  0.31910000  0.97051000  1.0
  O  O244  1  0.92550000  0.66290000  0.94210000  1.0
  O  O245  1  0.88760000  0.54760000  0.89910000  1.0
  O  O246  1  0.22560000  0.16580000  0.91154000  1.0
  O  O247  1  0.27300000  0.30910000  0.82990000  1.0
  O  O248  1  0.12460000  0.32800000  0.89680000  1.0
  O  O249  1  0.26070000  0.56510000  0.07700000  1.0
  O  O250  1  0.60110000  0.53650000  0.87460000  1.0
  O  O251  1  0.55000000  0.65800000  0.84700000  1.0
  O  O252  1  0.25140000  0.51560000  0.69170000  1.0
  O  O253  1  0.29680000  0.64240000  0.71080000  1.0
  O  O254  1  0.19740000  0.68030000  0.05190000  1.0
  O  O255  1  0.85950000  0.83170000  0.90020000  1.0
  O  O256  1  0.70950000  0.81910000  0.97051000  1.0
  O  O257  1  0.42550000  0.16290000  0.94210000  1.0
  O  O258  1  0.38760000  0.04760000  0.89910000  1.0
  O  O259  1  0.72560000  0.66580000  0.91154000  1.0
  O  O260  1  0.77300000  0.80910000  0.82990000  1.0
  O  O261  1  0.62460000  0.82800000  0.89680000  1.0
  O  O262  1  0.76070000  0.06510000  0.07700000  1.0
  O  O263  1  0.10110000  0.03650000  0.87460000  1.0
  O  O264  1  0.05000000  0.15800000  0.84700000  1.0
  O  O265  1  0.75140000  0.01560000  0.69170000  1.0
  O  O266  1  0.79680000  0.14240000  0.71080000  1.0
  O  O267  1  0.69740000  0.18030000  0.05190000  1.0
  O  O268  1  0.35950000  0.66830000  0.40020000  1.0
  O  O269  1  0.20950000  0.68090000  0.47051000  1.0
  O  O270  1  0.92550000  0.33710000  0.44210000  1.0
  O  O271  1  0.88760000  0.45240000  0.39910000  1.0
  O  O272  1  0.22560000  0.83420000  0.41154000  1.0
  O  O273  1  0.27300000  0.69090000  0.32990000  1.0
  O  O274  1  0.12460000  0.67200000  0.39680000  1.0
  O  O275  1  0.26070000  0.43490000  0.57700000  1.0
  O  O276  1  0.60110000  0.46350000  0.37460000  1.0
  O  O277  1  0.55000000  0.34200000  0.34700000  1.0
  O  O278  1  0.25140000  0.48440000  0.19170000  1.0
  O  O279  1  0.29680000  0.35760000  0.21080000  1.0
  O  O280  1  0.19740000  0.31970000  0.55190000  1.0
  O  O281  1  0.85950000  0.16830000  0.40020000  1.0
  O  O282  1  0.70950000  0.18090000  0.47051000  1.0
  O  O283  1  0.42550000  0.83710000  0.44210000  1.0
  O  O284  1  0.38760000  0.95240000  0.39910000  1.0
  O  O285  1  0.72560000  0.33420000  0.41154000  1.0
  O  O286  1  0.77300000  0.19090000  0.32990000  1.0
  O  O287  1  0.62460000  0.17200000  0.39680000  1.0
  O  O288  1  0.76070000  0.93490000  0.57700000  1.0
  O  O289  1  0.10110000  0.96350000  0.37460000  1.0
  O  O290  1  0.05000000  0.84200000  0.34700000  1.0
  O  O291  1  0.75140000  0.98440000  0.19170000  1.0
  O  O292  1  0.79680000  0.85760000  0.21080000  1.0
  O  O293  1  0.69740000  0.81970000  0.55190000  1.0
  O  O294  1  0.64050000  0.66830000  0.09980000  1.0
  O  O295  1  0.79050000  0.68090000  0.02949000  1.0
  O  O296  1  0.07450000  0.33710000  0.05790000  1.0
  O  O297  1  0.11240000  0.45240000  0.10090000  1.0
  O  O298  1  0.77440000  0.83420000  0.08846000  1.0
  O  O299  1  0.72700000  0.69090000  0.17010000  1.0
  O  O300  1  0.87540000  0.67200000  0.10320000  1.0
  O  O301  1  0.73930000  0.43490000  0.92300000  1.0
  O  O302  1  0.39890000  0.46350000  0.12540000  1.0
  O  O303  1  0.45000000  0.34200000  0.15300000  1.0
  O  O304  1  0.74860000  0.48440000  0.30830000  1.0
  O  O305  1  0.70320000  0.35760000  0.28920000  1.0
  O  O306  1  0.80260000  0.31970000  0.94810000  1.0
  O  O307  1  0.14050000  0.16830000  0.09980000  1.0
  O  O308  1  0.29050000  0.18090000  0.02949000  1.0
  O  O309  1  0.57450000  0.83710000  0.05790000  1.0
  O  O310  1  0.61240000  0.95240000  0.10090000  1.0
  O  O311  1  0.27440000  0.33420000  0.08846000  1.0
  O  O312  1  0.22700000  0.19090000  0.17010000  1.0
  O  O313  1  0.37540000  0.17200000  0.10320000  1.0
  O  O314  1  0.23930000  0.93490000  0.92300000  1.0
  O  O315  1  0.89890000  0.96350000  0.12540000  1.0
  O  O316  1  0.95000000  0.84200000  0.15300000  1.0
  O  O317  1  0.24860000  0.98440000  0.30830000  1.0
  O  O318  1  0.20320000  0.85760000  0.28920000  1.0
  O  O319  1  0.30260000  0.81970000  0.94810000  1.0
